/*--------------------------------*- C++ -*----------------------------------*\
  =========                 |
  \\      /  F ield         | OpenFOAM: The Open Source CFD Toolbox
   \\    /   O peration     | Website:  https://openfoam.org
    \\  /    A nd           | Version:  12
     \\/     M anipulation  |
\*---------------------------------------------------------------------------*/
FoamFile
{
    format      ascii;
    class       extendedFeatureEdgeMesh;
    location    "constant/extendedFeatureEdgeMesh";
    object      .stl.extendedFeatureEdgeMesh;
}
// * * * * * * * * * * * * * * * * * * * * * * * * * * * * * * * * * * * * * //

// points

58
(
(-17.5051 3.00432 12)
(-17.5051 3.00432 0)
(-17.5051 8.00432 0)
(-17.5051 8.00432 12)
(-17.464 -7.99568 12)
(-17.464 -7.99568 0)
(-17.464 -2.99568 0)
(-17.464 -2.99568 12)
(17.4949 3.00432 0)
(17.4949 3.00432 12)
(17.4949 8.00432 0)
(17.4949 8.00432 12)
(17.5333 -7.99568 12)
(17.5333 -2.99568 12)
(2.49485 8.00432 0)
(-2.50515 8.00432 0)
(-2.50515 3.00432 0)
(2.49485 3.00432 0)
(2.49485 -7.99568 0)
(17.5333 -7.99568 0)
(17.5333 -2.99568 0)
(2.49485 -2.99568 0)
(-2.50515 8.00432 3)
(2.49485 8.00432 3)
(-2.50515 3.00432 3)
(2.49485 3.00432 3)
(-2.50515 8.00432 6)
(2.49485 8.00432 6)
(-2.50515 3.00432 6)
(2.49485 3.00432 6)
(-2.50515 8.00432 9)
(2.49485 8.00432 9)
(-2.50515 3.00432 9)
(2.49485 3.00432 9)
(-2.50515 8.00432 12)
(2.49485 8.00432 12)
(-2.50515 3.00432 12)
(2.49485 3.00432 12)
(-2.50515 -2.99568 0)
(-2.50515 -7.99568 0)
(-2.50515 -7.99568 3)
(-2.50515 -2.99568 3)
(2.49485 -7.99568 3)
(2.49485 -2.99568 3)
(-2.50515 -7.99568 6)
(-2.50515 -2.99568 6)
(2.49485 -7.99568 6)
(2.49485 -2.99568 6)
(-2.50515 -7.99568 9)
(-2.50515 -2.99568 9)
(2.49485 -7.99568 9)
(2.49485 -2.99568 9)
(-2.50515 -7.99568 12)
(-2.50515 -2.99568 12)
(2.49485 -7.99568 12)
(2.49485 -2.99568 12)
(-7.50515 8.00432 0)
(-12.5051 8.00432 0)
)

// edges

106
(
(34 35)
(37 36)
(39 18)
(21 38)
(54 52)
(53 55)
(0 1)
(1 16)
(36 0)
(15 56)
(2 3)
(57 2)
(56 57)
(3 34)
(2 1)
(0 3)
(4 5)
(5 39)
(52 4)
(38 6)
(6 7)
(7 53)
(6 5)
(4 7)
(17 8)
(8 9)
(9 37)
(10 11)
(8 10)
(11 9)
(10 14)
(35 11)
(19 12)
(12 54)
(20 13)
(13 12)
(55 13)
(14 15)
(16 17)
(18 19)
(19 20)
(20 21)
(15 16)
(17 14)
(21 18)
(15 22)
(23 14)
(22 23)
(16 24)
(24 22)
(17 25)
(25 24)
(23 25)
(22 26)
(27 23)
(26 27)
(24 28)
(28 26)
(25 29)
(29 28)
(27 29)
(26 30)
(31 27)
(30 31)
(28 32)
(32 30)
(29 33)
(33 32)
(31 33)
(30 34)
(35 31)
(32 36)
(36 34)
(33 37)
(35 37)
(39 40)
(38 39)
(41 38)
(40 41)
(18 42)
(42 40)
(21 43)
(43 42)
(41 43)
(40 44)
(45 41)
(44 45)
(42 46)
(46 44)
(43 47)
(47 46)
(45 47)
(44 48)
(49 45)
(48 49)
(46 50)
(50 48)
(47 51)
(51 50)
(49 51)
(48 52)
(53 49)
(52 53)
(50 54)
(51 55)
(55 54)
)

// concaveStart mixedStart nonFeatureStart
14 14 56
// internalStart flatStart openStart multipleStart
37 42 42 42
// normals

204
(
(0 0 1)
(-1 0 0)
(1 0 0)
(0 0 -1)
(0 0 1)
(1 0 0)
(-1 0 0)
(0 0 -1)
(0 0 1)
(1 0 0)
(-1 0 0)
(0 -0 -1)
(0 1 0)
(0 1 0)
(-1 0 0)
(0 1 -0)
(0 1 0)
(-1 0 0)
(0 1 0)
(0 0 1)
(0 0 -1)
(1 0 0)
(0 -1 0)
(0 -1 0)
(-1 0 0)
(1 0 0)
(0 0 -1)
(0 -1 0)
(0 -1 0)
(1 0 0)
(0 -1 0)
(0 -1 0)
(0 0 1)
(1 0 0)
(-1 0 0)
(0 1 0)
(-1 0 0)
(0 1 -0)
(0 1 0)
(-1 0 0)
(0 1 0)
(0 0 1)
(0 0 -1)
(1 0 0)
(0 -1 0)
(-1 0 0)
(1 0 0)
(0 0 -1)
(0 -1 0)
(0 -1 0)
(1 0 0)
(0 -1 0)
(0 -1 0)
(0 0 1)
(1 0 0)
(-1 0 0)
(0 1 0)
(-1 0 0)
(0 1 -0)
(0 1 0)
(-1 0 0)
(0 1 0)
(0 0 1)
(0 0 -1)
(1 0 0)
(0 -1 0)
(-1 0 0)
(1 0 0)
(0 0 -1)
(0 -1 0)
(0 -1 0)
(1 0 0)
(0 -1 0)
(0 -1 0)
(0 0 1)
(1 0 0)
(-1 0 0)
(0 1 0)
(-1 0 0)
(0 1 -0)
(0 1 0)
(-1 0 0)
(1 0 0)
(0 -1 0)
(0 0 1)
(0 0 1)
(0 -1 0)
(0 -1 0)
(1 0 0)
(0 0 1)
(0 0 1)
(-1 0 0)
(1 0 0)
(0 -1 0)
(0 -1 0)
(1 0 0)
(0 0 -1)
(-0 0 -1)
(-1 0 0)
(0 1 0)
(0 1 0)
(-1 0 0)
(1 0 0)
(0 0 1)
(-0 0 -1)
(0 -1 0)
(0 -1 0)
(1 0 0)
(0 -1 0)
(0 -0 -1)
(-1 0 0)
(0 1 0)
(-0 1 0)
(1 0 0)
(-1 0 0)
(-0 0 1)
(0 1 -0)
(0 1 0)
(1 0 0)
(0 -1 0)
(0 -1 0)
(-1 0 0)
(0 1 0)
(-1 0 0)
(1 0 0)
(0 0 1)
(-0 0 -1)
(0 -1 0)
(1 0 0)
(0 -1 0)
(0 -0 -1)
(-1 0 0)
(0 1 0)
(-0 1 0)
(1 0 0)
(-1 0 0)
(-0 0 1)
(0 1 -0)
(0 1 0)
(1 0 0)
(0 -1 0)
(0 -1 0)
(-1 0 0)
(0 1 0)
(-1 0 0)
(1 0 0)
(0 0 1)
(-0 0 -1)
(0 -1 0)
(1 0 0)
(0 -1 0)
(0 -0 -1)
(-1 0 0)
(0 1 0)
(-0 1 0)
(1 0 0)
(-1 0 0)
(-0 0 1)
(0 1 -0)
(0 1 0)
(1 0 0)
(0 -1 0)
(0 -1 0)
(-1 0 0)
(0 1 0)
(0 0 1)
(0 0 1)
(0 -1 0)
(1 0 0)
(-1 0 0)
(0 1 0)
(-0 1 0)
(0 0 1)
(-0 0 1)
(0 -1 0)
(0 1 -0)
(0 -1 0)
(-1 0 0)
(0 -0 -1)
(0 1 0)
(-1 0 0)
(0 0 -1)
(0 1 0)
(0 0 -1)
(0 1 -0)
(0 0 1)
(0 -1 0)
(-1 0 0)
(0 0 -1)
(0 1 0)
(-1 0 0)
(0 0 1)
(0 -1 0)
(1 0 0)
(0 0 1)
(1 0 0)
(0 1 0)
(0 0 -1)
(0 -1 0)
(1 0 0)
(0 0 1)
(1 0 0)
(0 1 0)
(0 0 1)
)

// normal volume types

204
(
0
0
0
0
0
0
0
0
0
0
0
0
0
0
0
0
0
0
0
0
0
0
0
0
0
0
0
0
0
0
0
0
0
0
0
0
0
0
0
0
0
0
0
0
0
0
0
0
0
0
0
0
0
0
0
0
0
0
0
0
0
0
0
0
0
0
0
0
0
0
0
0
0
0
0
0
0
0
0
0
0
0
0
0
0
0
0
0
0
0
0
0
0
0
0
0
0
0
0
0
0
0
0
0
0
0
0
0
0
0
0
0
0
0
0
0
0
0
0
0
0
0
0
0
0
0
0
0
0
0
0
0
0
0
0
0
0
0
0
0
0
0
0
0
0
0
0
0
0
0
0
0
0
0
0
0
0
0
0
0
0
0
0
0
0
0
0
0
0
0
0
0
0
0
0
0
0
0
0
0
0
0
0
0
0
0
0
0
0
0
0
0
0
0
0
0
0
0
0
0
0
0
0
0
)

// normalDirections

106
(
2(1 -1)
2(1 -1)
2(1 -1)
2(1 -1)
2(1 -1)
2(1 -1)
2(1 -1)
2(1 -1)
2(1 -1)
2(1 -1)
2(1 -1)
2(1 -1)
2(1 -1)
2(1 -1)
2(1 -1)
2(1 -1)
2(1 -1)
2(1 -1)
2(1 -1)
2(1 -1)
2(1 -1)
2(1 -1)
2(1 -1)
2(1 -1)
2(1 -1)
2(1 -1)
2(1 -1)
2(1 -1)
2(1 -1)
2(1 -1)
2(1 -1)
2(1 -1)
2(1 -1)
2(1 -1)
2(1 -1)
2(1 -1)
2(1 -1)
2{1}
2{1}
2{1}
2{1}
2{1}
4(1 1 -1 1)
4(1 1 -1 1)
4(1 -1 1 1)
4(1 -1 -1 1)
4(1 -1 -1 1)
4(1 -1 -1 1)
4(1 -1 1 -1)
6(1 -1 -1 1 -1 1)
4(1 -1 -1 1)
4(1 -1 -1 1)
6(1 -1 -1 1 -1 1)
4(1 -1 -1 1)
4(1 -1 -1 1)
4(1 -1 -1 1)
4(1 -1 1 -1)
6(1 -1 -1 1 -1 1)
4(1 -1 -1 1)
4(1 -1 -1 1)
6(1 -1 -1 1 -1 1)
4(1 -1 -1 1)
4(1 -1 -1 1)
4(1 -1 -1 1)
4(1 -1 1 -1)
6(1 -1 -1 1 -1 1)
4(1 -1 -1 1)
4(1 -1 -1 1)
6(1 -1 -1 1 -1 1)
4(1 -1 -1 1)
4(1 -1 -1 1)
4(1 -1 1 -1)
4(1 -1 1 -1)
4(1 -1 -1 1)
4(1 -1 1 -1)
4(1 -1 1 -1)
4(1 -1 1 -1)
4(1 -1 1 -1)
6(1 -1 -1 1 -1 1)
4(1 -1 -1 1)
4(1 -1 -1 1)
4(1 -1 1 -1)
6(1 -1 -1 1 -1 1)
4(1 -1 -1 1)
4(1 -1 1 -1)
4(1 -1 1 -1)
6(1 -1 -1 1 -1 1)
4(1 -1 -1 1)
4(1 -1 -1 1)
4(1 -1 1 -1)
6(1 -1 -1 1 -1 1)
4(1 -1 -1 1)
4(1 -1 1 -1)
4(1 -1 1 -1)
6(1 -1 -1 1 -1 1)
4(1 -1 -1 1)
4(1 -1 -1 1)
4(1 -1 1 -1)
6(1 -1 -1 1 -1 1)
4(1 -1 -1 1)
4(1 -1 1 -1)
4(1 -1 1 -1)
4(1 -1 1 -1)
4(1 -1 -1 1)
4(1 -1 1 -1)
4(1 -1 1 -1)
)

// edgeNormals

106
(
2(79 85)
2(174 90)
2(105 11)
2(100 97)
2(162 166)
2(175 173)
2(176 177)
2(176 178)
2(83 84)
2(13 3)
2(179 180)
2(179 181)
2(182 183)
2(184 185)
2(177 181)
2(180 185)
2(186 187)
2(186 188)
2(161 165)
2(99 96)
2(189 190)
2(189 191)
2(187 188)
2(190 191)
2(28 7)
2(192 193)
2(192 194)
2(195 196)
2(195 197)
2(193 194)
2(196 197)
2(80 89)
2(198 199)
2(198 200)
2(201 202)
2(199 200)
2(170 172)
2(0 12)
2(4 23)
2(203 106)
2(203 201)
2(8 202)
4(0 1 2 3)
4(4 5 6 7)
4(8 9 10 11)
4(12 13 14 2)
4(15 16 5 17)
4(15 18 19 20)
4(1 21 22 23)
6(14 21 24 25 19 26)
4(27 28 29 6)
4(30 31 32 26)
6(29 17 33 34 32 20)
4(18 35 36 25)
4(37 38 33 39)
4(37 40 41 42)
4(24 43 44 31)
6(36 43 45 46 41 47)
4(48 49 50 34)
4(51 52 53 47)
6(50 39 54 55 53 42)
4(40 56 57 46)
4(58 59 54 60)
4(58 61 62 63)
4(45 64 65 52)
6(57 64 66 67 62 68)
4(69 70 71 55)
4(72 73 74 68)
6(71 60 75 76 74 63)
4(61 77 78 67)
4(79 80 75 81)
4(66 82 83 73)
4(78 82 84 85)
4(86 87 88 76)
4(88 81 89 90)
4(91 92 93 94)
4(91 95 96 97)
4(98 95 99 100)
6(98 92 101 102 103 104)
4(105 106 107 10)
4(94 108 103 109)
4(9 110 111 112)
6(107 110 113 114 115 109)
4(116 117 115 104)
4(101 118 119 120)
4(121 102 122 117)
6(121 118 123 124 125 126)
4(108 127 128 114)
4(120 129 125 130)
4(113 131 132 133)
6(128 131 134 135 136 130)
4(137 138 136 126)
4(123 139 140 141)
4(142 124 143 138)
6(142 139 144 145 146 147)
4(129 148 149 135)
4(141 150 146 151)
4(134 152 153 154)
6(149 152 155 156 157 151)
4(158 159 157 147)
4(144 160 161 162)
4(163 145 164 159)
4(163 160 165 166)
4(150 167 168 156)
4(155 169 170 171)
4(168 169 172 173)
)

// featurePointNormals

56
(
3(176 177 84)
3(176 177 178)
3(179 180 181)
3(179 180 185)
3(186 187 165)
3(186 187 188)
3(99 96 190)
3(189 190 191)
3(28 7 193)
3(192 193 194)
3(195 196 197)
3(195 196 194)
3(198 199 200)
3(201 202 200)
5(196 197 0 5 6)
5(13 3 0 1 2)
5(176 178 4 1 2)
5(28 7 4 5 6)
5(105 11 203 9 10)
3(198 199 203)
3(201 202 203)
5(100 97 8 9 10)
5(12 14 2 19 20)
5(15 5 17 19 20)
5(1 21 22 19 26)
5(27 29 6 32 26)
5(18 36 25 41 42)
5(37 33 39 41 42)
5(24 43 44 41 47)
5(48 50 34 53 47)
5(40 57 46 62 63)
5(58 54 60 62 63)
5(45 64 65 62 68)
5(69 71 55 74 68)
4(79 85 78 67)
4(79 85 75 81)
4(174 90 66 82)
4(174 90 88 76)
4(100 97 91 95)
4(105 11 91 92)
5(91 92 93 103 104)
5(98 95 99 103 104)
5(105 107 10 103 109)
5(9 110 111 115 109)
5(101 118 119 125 126)
5(121 102 122 125 126)
5(108 128 114 125 130)
5(113 131 132 136 130)
5(123 139 140 146 147)
5(142 124 143 146 147)
5(129 149 135 146 151)
5(134 152 153 157 151)
4(162 166 144 160)
4(175 173 163 145)
4(162 166 168 156)
4(175 173 155 169)
)

// featurePointEdges

56
(
3(8 15 6)
3(6 14 7)
3(10 14 11)
3(13 15 10)
3(18 23 16)
3(16 22 17)
3(20 22 19)
3(20 23 21)
3(25 28 24)
3(25 29 26)
3(27 30 28)
3(29 31 27)
3(32 35 33)
3(35 36 34)
4(37 43 46 30)
4(37 42 45 9)
4(42 38 48 7)
4(38 43 50 24)
4(39 44 79 2)
3(39 32 40)
3(41 34 40)
4(44 41 81 3)
4(45 47 49 53)
4(46 47 52 54)
4(48 49 51 56)
4(50 51 52 58)
4(53 55 57 61)
4(54 55 60 62)
4(56 57 59 64)
4(58 59 60 66)
4(61 63 65 69)
4(62 63 68 70)
4(64 65 67 71)
4(66 67 68 73)
4(69 0 72 13)
4(70 0 74 31)
4(71 72 1 8)
4(73 1 74 26)
4(76 77 3 19)
4(75 76 2 17)
4(75 78 80 84)
4(77 78 83 85)
4(79 80 82 87)
4(81 82 83 89)
4(84 86 88 92)
4(85 86 91 93)
4(87 88 90 95)
4(89 90 91 97)
4(92 94 96 100)
4(93 94 99 101)
4(95 96 98 103)
4(97 98 99 104)
4(100 102 4 18)
4(101 102 5 21)
4(103 4 105 33)
4(104 105 5 36)
)

// regionEdges

64
(
42
43
44
45
46
47
48
49
50
51
52
53
54
55
56
57
58
59
60
61
62
63
64
65
66
67
68
69
70
71
72
73
74
75
76
77
78
79
80
81
82
83
84
85
86
87
88
89
90
91
92
93
94
95
96
97
98
99
100
101
102
103
104
105
)



// ************************************************************************* //
