/*--------------------------------*- C++ -*----------------------------------*\
  =========                 |
  \\      /  F ield         | OpenFOAM: The Open Source CFD Toolbox
   \\    /   O peration     | Website:  https://openfoam.org
    \\  /    A nd           | Version:  12
     \\/     M anipulation  |
\*---------------------------------------------------------------------------*/
FoamFile
{
    format      ascii;
    class       extendedFeatureEdgeMesh;
    location    "constant/extendedFeatureEdgeMesh";
    object      canyonHVAC-Zona_10-fachada_5.extendedFeatureEdgeMesh;
}
// * * * * * * * * * * * * * * * * * * * * * * * * * * * * * * * * * * * * * //

// points
9((1.620090008 8.640393257 13) (-13.37985992 8.640393257 13) (1.620090008 8.640393257 1) (-13.37985992 8.640393257 1) (1.620090008 8.640393257 10) (1.620090008 8.640393257 7) (-3.379909992 8.640393257 1) (-8.379859924 8.640393257 1) (1.620090008 8.640393257 4))
// edges
9((0 4) (1 0) (4 5) (6 7) (8 2) (2 6) (5 8) (7 3) (3 1))
// concaveStart mixedStart nonFeatureStart
0 0 4
// internalStart flatStart openStart multipleStart
0 0 0 9
// normals
6{(0 1 0)}
// normal volume types

6
(
0
0
0
0
0
0
)

// normalDirections

9
(
1(1)
1(1)
1(1)
1(1)
1(1)
1(1)
1(1)
1(1)
1(1)
)

// edgeNormals

9
(
1(0)
1(0)
1(1)
1(2)
1(3)
1(3)
1(4)
1(5)
1(5)
)

// featurePointNormals

4
(
1(0)
1(0)
1(3)
1(5)
)

// featurePointEdges

4
(
2(0 1)
2(1 8)
2(4 5)
2(7 8)
)

// regionEdges
9(0 1 2 3 4 5 6 7 8)


// ************************************************************************* //
