/*--------------------------------*- C++ -*----------------------------------*\
  =========                 |
  \\      /  F ield         | OpenFOAM: The Open Source CFD Toolbox
   \\    /   O peration     | Website:  https://openfoam.org
    \\  /    A nd           | Version:  12
     \\/     M anipulation  |
\*---------------------------------------------------------------------------*/
FoamFile
{
    format      ascii;
    class       extendedFeatureEdgeMesh;
    location    "constant/extendedFeatureEdgeMesh";
    object      canyonHVAC-Zona_1-fachada_2.extendedFeatureEdgeMesh;
}
// * * * * * * * * * * * * * * * * * * * * * * * * * * * * * * * * * * * * * //

// points
6((-20.87475967 25.63607216 -0) (-20.87475967 25.63607216 1) (29.12524033 25.63607216 1) (29.12524033 25.63607216 -0) (-13.37985992 25.63607216 1) (21.62014008 25.63607216 1))
// edges
6((0 1) (1 4) (4 5) (5 2) (2 3) (3 0))
// concaveStart mixedStart nonFeatureStart
0 0 4
// internalStart flatStart openStart multipleStart
0 0 0 6
// normals
4{(0 1 0)}
// normal volume types

4
(
0
0
0
0
)

// normalDirections

6
(
1(1)
1(1)
1(1)
1(1)
1(1)
1(1)
)

// edgeNormals

6
(
1(0)
1(0)
1(1)
1(2)
1(2)
1(3)
)

// featurePointNormals

4
(
1(0)
1(0)
1(2)
1(2)
)

// featurePointEdges

4
(
2(0 5)
2(0 1)
2(3 4)
2(4 5)
)

// regionEdges
6(0 1 2 3 4 5)


// ************************************************************************* //
