/*--------------------------------*- C++ -*----------------------------------*\
  =========                 |
  \\      /  F ield         | OpenFOAM: The Open Source CFD Toolbox
   \\    /   O peration     | Website:  https://openfoam.org
    \\  /    A nd           | Version:  12
     \\/     M anipulation  |
\*---------------------------------------------------------------------------*/
FoamFile
{
    format      ascii;
    class       extendedFeatureEdgeMesh;
    location    "constant/extendedFeatureEdgeMesh";
    object      canyonHVAC-Zona_10-fachada_0.extendedFeatureEdgeMesh;
}
// * * * * * * * * * * * * * * * * * * * * * * * * * * * * * * * * * * * * * //

// points
7((-13.37985992 3.640393019 1) (1.620090008 3.640393019 1) (-13.37985992 3.640393019 13) (1.620090008 3.640393019 13) (1.620090008 3.640393019 4) (1.620090008 3.640393019 7) (1.620090008 3.640393019 10))
// edges
7((0 1) (1 4) (4 5) (5 6) (2 0) (3 2) (6 3))
// concaveStart mixedStart nonFeatureStart
0 0 4
// internalStart flatStart openStart multipleStart
0 0 0 7
// normals
5{(0 -1 0)}
// normal volume types

5
(
0
0
0
0
0
)

// normalDirections

7
(
1(1)
1(1)
1(1)
1(1)
1(1)
1(1)
1(1)
)

// edgeNormals

7
(
1(0)
1(0)
1(1)
1(2)
1(3)
1(4)
1(4)
)

// featurePointNormals

4
(
1(0)
1(0)
1(3)
1(4)
)

// featurePointEdges

4
(
2(0 4)
2(0 1)
2(4 5)
2(5 6)
)

// regionEdges
7(0 1 2 3 4 5 6)


// ************************************************************************* //
