/*--------------------------------*- C++ -*----------------------------------*\
  =========                 |
  \\      /  F ield         | OpenFOAM: The Open Source CFD Toolbox
   \\    /   O peration     | Website:  https://openfoam.org
    \\  /    A nd           | Version:  12
     \\/     M anipulation  |
\*---------------------------------------------------------------------------*/
FoamFile
{
    format      ascii;
    class       extendedFeatureEdgeMesh;
    location    "constant/extendedFeatureEdgeMesh";
    object      canyonHVAC-Zona_13-fachada_0.extendedFeatureEdgeMesh;
}
// * * * * * * * * * * * * * * * * * * * * * * * * * * * * * * * * * * * * * //

// points
7((6.620090008 -7.35960722 1) (21.65854073 -7.35960722 1) (21.65854073 -7.35960722 13) (6.620090008 -7.35960722 13) (6.620090008 -7.35960722 4) (6.620090008 -7.35960722 7) (6.620090008 -7.35960722 10))
// edges
7((0 1) (4 0) (5 4) (6 5) (3 6) (2 3) (1 2))
// concaveStart mixedStart nonFeatureStart
0 0 4
// internalStart flatStart openStart multipleStart
0 0 0 7
// normals
5{(0 -1 0)}
// normal volume types

5
(
0
0
0
0
0
)

// normalDirections

7
(
1(1)
1(1)
1(1)
1(1)
1(1)
1(1)
1(1)
)

// edgeNormals

7
(
1(0)
1(0)
1(1)
1(2)
1(3)
1(3)
1(4)
)

// featurePointNormals

4
(
1(0)
1(0)
1(3)
1(3)
)

// featurePointEdges

4
(
2(0 1)
2(0 6)
2(5 6)
2(4 5)
)

// regionEdges
7(0 1 2 3 4 5 6)


// ************************************************************************* //
