/*--------------------------------*- C++ -*----------------------------------*\
  =========                 |
  \\      /  F ield         | OpenFOAM: The Open Source CFD Toolbox
   \\    /   O peration     | Website:  https://openfoam.org
    \\  /    A nd           | Version:  12
     \\/     M anipulation  |
\*---------------------------------------------------------------------------*/
FoamFile
{
    format      ascii;
    class       extendedFeatureEdgeMesh;
    location    "constant/extendedFeatureEdgeMesh";
    object      canyonHVAC-Zona_1-fachada_4.extendedFeatureEdgeMesh;
}
// * * * * * * * * * * * * * * * * * * * * * * * * * * * * * * * * * * * * * //

// points
6((29.12524033 -24.36392784 -0) (-20.87475967 -24.36392784 -0) (-20.87475967 -24.36392784 1) (29.12524033 -24.36392784 1) (-13.33876038 -24.36392784 1) (21.65854073 -24.36392784 1))
// edges
6((1 0) (4 2) (2 1) (5 4) (0 3) (3 5))
// concaveStart mixedStart nonFeatureStart
0 0 4
// internalStart flatStart openStart multipleStart
0 0 0 6
// normals
4{(0 -1 0)}
// normal volume types

4
(
0
0
0
0
)

// normalDirections

6
(
1(1)
1(1)
1(1)
1(1)
1(1)
1(1)
)

// edgeNormals

6
(
1(0)
1(1)
1(1)
1(2)
1(3)
1(3)
)

// featurePointNormals

4
(
1(0)
1(0)
1(1)
1(3)
)

// featurePointEdges

4
(
2(0 4)
2(0 2)
2(1 2)
2(4 5)
)

// regionEdges
6(0 1 2 3 4 5)


// ************************************************************************* //
