/*--------------------------------*- C++ -*----------------------------------*\
  =========                 |
  \\      /  F ield         | OpenFOAM: The Open Source CFD Toolbox
   \\    /   O peration     | Website:  https://openfoam.org
    \\  /    A nd           | Version:  12
     \\/     M anipulation  |
\*---------------------------------------------------------------------------*/
FoamFile
{
    format      ascii;
    class       extendedFeatureEdgeMesh;
    location    "constant/extendedFeatureEdgeMesh";
    object      canyonHVAC-Zona_1-cobertura_15.extendedFeatureEdgeMesh;
}
// * * * * * * * * * * * * * * * * * * * * * * * * * * * * * * * * * * * * * //

// points
8((-13.37985992 25.63607216 1) (-13.37985992 8.640393257 1) (21.62014008 25.63607216 1) (21.62014008 8.640393257 1) (-8.379859924 8.640393257 1) (-3.379909992 8.640393257 1) (1.620090008 8.640393257 1) (6.620090008 8.640393257 1))
// edges
8((0 1) (1 4) (5 6) (4 5) (2 0) (6 7) (7 3) (3 2))
// concaveStart mixedStart nonFeatureStart
0 0 4
// internalStart flatStart openStart multipleStart
0 0 0 8
// normals
6{(0 0 1)}
// normal volume types

6
(
0
0
0
0
0
0
)

// normalDirections

8
(
1(1)
1(1)
1(1)
1(1)
1(1)
1(1)
1(1)
1(1)
)

// edgeNormals

8
(
1(0)
1(0)
1(1)
1(2)
1(3)
1(4)
1(5)
1(5)
)

// featurePointNormals

4
(
1(0)
1(0)
1(3)
1(5)
)

// featurePointEdges

4
(
2(0 4)
2(0 1)
2(4 7)
2(6 7)
)

// regionEdges
8(0 1 2 3 4 5 6 7)


// ************************************************************************* //
