/*--------------------------------*- C++ -*----------------------------------*\
  =========                 |
  \\      /  F ield         | OpenFOAM: The Open Source CFD Toolbox
   \\    /   O peration     | Website:  https://openfoam.org
    \\  /    A nd           | Version:  12
     \\/     M anipulation  |
\*---------------------------------------------------------------------------*/
FoamFile
{
    format      ascii;
    class       extendedFeatureEdgeMesh;
    location    "constant/extendedFeatureEdgeMesh";
    object      canyonHVAC-Zona_1-cobertura_13.extendedFeatureEdgeMesh;
}
// * * * * * * * * * * * * * * * * * * * * * * * * * * * * * * * * * * * * * //

// points
8((21.65854073 -24.36392784 1) (29.12524033 -24.36392784 1) (29.12524033 25.63607216 1) (21.62014008 25.63607216 1) (21.65854073 -7.35960722 1) (21.65854073 -2.359606981 1) (21.62014008 8.640393257 1) (21.62014008 3.640393019 1))
// edges
8((0 1) (4 0) (1 2) (5 4) (6 7) (3 6) (2 3) (7 5))
// concaveStart mixedStart nonFeatureStart
0 0 4
// internalStart flatStart openStart multipleStart
0 0 0 8
// normals
6{(0 0 1)}
// normal volume types

6
(
0
0
0
0
0
0
)

// normalDirections

8
(
1(1)
1(1)
1(1)
1(1)
1(1)
1(1)
1(1)
1(1)
)

// edgeNormals

8
(
1(0)
1(0)
1(1)
1(2)
1(3)
1(4)
1(4)
1(5)
)

// featurePointNormals

4
(
1(0)
1(0)
1(1)
1(4)
)

// featurePointEdges

4
(
2(0 1)
2(0 2)
2(2 6)
2(5 6)
)

// regionEdges
8(0 1 2 3 4 5 6 7)


// ************************************************************************* //
