/*--------------------------------*- C++ -*----------------------------------*\
  =========                 |
  \\      /  F ield         | OpenFOAM: The Open Source CFD Toolbox
   \\    /   O peration     | Website:  https://openfoam.org
    \\  /    A nd           | Version:  12
     \\/     M anipulation  |
\*---------------------------------------------------------------------------*/
FoamFile
{
    format      ascii;
    class       extendedFeatureEdgeMesh;
    location    "constant/extendedFeatureEdgeMesh";
    object      canyonHVAC-Zona_3-Ar_Condicionado_6.extendedFeatureEdgeMesh;
}
// * * * * * * * * * * * * * * * * * * * * * * * * * * * * * * * * * * * * * //

// points
8((4.621304989 3.340393066 6.096652985) (3.621304989 3.340393066 6.096652985) (4.621304989 3.340393066 6.396653175) (3.621304989 3.340393066 6.396653175) (4.621304989 3.640393019 6.096652985) (3.621304989 3.640393019 6.096652985) (4.621304989 3.640393019 6.396653175) (3.621304989 3.640393019 6.396653175))
// edges

12
(
(4 0)
(0 1)
(1 5)
(6 2)
(2 0)
(7 3)
(3 2)
(1 3)
(5 4)
(4 6)
(6 7)
(7 5)
)

// concaveStart mixedStart nonFeatureStart
4 4 8
// internalStart flatStart openStart multipleStart
8 8 8 12
// normals
10((0 0 -1) (1 0 0) (0 -0 1) (-1 0 0) (0 -0 -1) (0 -1 0) (-1 0 0) (1 0 0) (0 0 1) (-0 -1 0))
// normal volume types

10
(
0
0
0
0
0
0
0
0
0
0
)

// normalDirections

12
(
2(1 -1)
2(1 -1)
2(1 -1)
2(1 -1)
2(1 -1)
2(1 -1)
2(1 -1)
2(1 -1)
1(1)
1(1)
1(1)
1(1)
)

// edgeNormals

12
(
2(4 1)
2(4 5)
2(0 6)
2(7 2)
2(7 5)
2(8 3)
2(8 9)
2(6 9)
1(0)
1(1)
1(2)
1(3)
)

// featurePointNormals

8
(
3(4 1 5)
3(4 5 6)
3(7 2 5)
3(8 3 9)
2(4 1)
2(0 6)
2(7 2)
2(8 3)
)

// featurePointEdges

8
(
3(0 4 1)
3(2 7 1)
3(3 6 4)
3(5 7 6)
3(0 8 9)
3(2 8 11)
3(3 9 10)
3(5 10 11)
)

// regionEdges
4(8 9 10 11)


// ************************************************************************* //
