/*--------------------------------*- C++ -*----------------------------------*\
  =========                 |
  \\      /  F ield         | OpenFOAM: The Open Source CFD Toolbox
   \\    /   O peration     | Website:  https://openfoam.org
    \\  /    A nd           | Version:  12
     \\/     M anipulation  |
\*---------------------------------------------------------------------------*/
FoamFile
{
    format      ascii;
    class       extendedFeatureEdgeMesh;
    location    "constant/extendedFeatureEdgeMesh";
    object      cobertura_17-Zona_1.extendedFeatureEdgeMesh;
}
// * * * * * * * * * * * * * * * * * * * * * * * * * * * * * * * * * * * * * //

// points
8((-25 -25 1) (-17.4640007 -25 1) (-17.50510025 25 1) (-25 25 1) (-17.4640007 -7.995679855 1) (-17.4640007 -2.995680094 1) (-17.50510025 3.004319906 1) (-17.50510025 8.004320145 1))
// edges
8((0 1) (1 4) (4 5) (5 6) (7 2) (2 3) (6 7) (3 0))
// concaveStart mixedStart nonFeatureStart
0 0 4
// internalStart flatStart openStart multipleStart
0 0 0 8
// normals
5{(0 0 1)}
// normal volume types

5
(
0
0
0
0
0
)

// normalDirections

8
(
1(1)
1(1)
1(1)
1(1)
1(1)
1(1)
1(1)
1(1)
)

// edgeNormals

8
(
1(0)
1(0)
1(1)
1(1)
1(2)
1(2)
1(3)
1(4)
)

// featurePointNormals

4
(
1(0)
1(0)
1(2)
1(2)
)

// featurePointEdges

4
(
2(0 7)
2(0 1)
2(4 5)
2(5 7)
)

// regionEdges
8(0 1 2 3 4 5 6 7)


// ************************************************************************* //
