/*--------------------------------*- C++ -*----------------------------------*\
  =========                 |
  \\      /  F ield         | OpenFOAM: The Open Source CFD Toolbox
   \\    /   O peration     | Website:  https://openfoam.org
    \\  /    A nd           | Version:  12
     \\/     M anipulation  |
\*---------------------------------------------------------------------------*/
FoamFile
{
    format      ascii;
    class       extendedFeatureEdgeMesh;
    location    "constant/extendedFeatureEdgeMesh";
    object      Cube.004.extendedFeatureEdgeMesh;
}
// * * * * * * * * * * * * * * * * * * * * * * * * * * * * * * * * * * * * * //

// points

78
(
(-0.25 1 1.5)
(-0.25 1 1.75)
(0.375 1 1.5)
(0.375 1 1.75)
(-1 1 0)
(-1 1 2)
(1 1 2)
(1 1 0)
(-0.25 1 1.625)
(-0.125 1 1.5)
(-0.125 1 1.75)
(0 1 1.5)
(0 1 1.75)
(0.125 1 1.5)
(0.125 1 1.75)
(0.25 1 1.5)
(0.25 1 1.75)
(0.375 1 1.625)
(-1 1 0.125)
(-0.875 1 0)
(-1 1 0.25)
(-1 1 0.375)
(-1 1 0.5)
(-1 1 0.625)
(-1 1 0.75)
(-1 1 0.875)
(-1 1 1)
(-1 1 1.125)
(-1 1 1.25)
(-1 1 1.375)
(-1 1 1.5)
(-1 1 1.625)
(-1 1 1.75)
(-1 1 1.875)
(-0.875 1 2)
(-0.75 1 2)
(-0.625 1 2)
(-0.5 1 2)
(-0.375 1 2)
(-0.25 1 2)
(-0.125 1 2)
(0 1 2)
(0.125 1 2)
(0.25 1 2)
(0.375 1 2)
(0.5 1 2)
(0.625 1 2)
(0.75 1 2)
(0.875 1 2)
(1 1 1.875)
(1 1 1.75)
(1 1 1.625)
(1 1 1.5)
(1 1 1.375)
(1 1 1.25)
(1 1 1.125)
(1 1 1)
(1 1 0.875)
(1 1 0.75)
(1 1 0.625)
(1 1 0.5)
(1 1 0.375)
(1 1 0.25)
(1 1 0.125)
(0.875 1 0)
(0.75 1 0)
(0.625 1 0)
(0.5 1 0)
(0.375 1 0)
(0.25 1 0)
(0.125 1 0)
(0 1 0)
(-0.125 1 0)
(-0.25 1 0)
(-0.375 1 0)
(-0.5 1 0)
(-0.625 1 0)
(-0.75 1 0)
)

// edges

78
(
(8 0)
(1 8)
(0 9)
(10 1)
(9 11)
(12 10)
(11 13)
(14 12)
(13 15)
(16 14)
(15 2)
(3 16)
(2 17)
(17 3)
(4 18)
(19 4)
(18 20)
(20 21)
(21 22)
(22 23)
(23 24)
(24 25)
(25 26)
(26 27)
(27 28)
(28 29)
(29 30)
(30 31)
(31 32)
(32 33)
(33 5)
(5 34)
(34 35)
(35 36)
(36 37)
(37 38)
(38 39)
(39 40)
(40 41)
(41 42)
(42 43)
(43 44)
(44 45)
(45 46)
(46 47)
(47 48)
(48 6)
(6 49)
(49 50)
(50 51)
(51 52)
(52 53)
(53 54)
(54 55)
(55 56)
(56 57)
(57 58)
(58 59)
(59 60)
(60 61)
(61 62)
(62 63)
(63 7)
(7 64)
(64 65)
(65 66)
(66 67)
(67 68)
(68 69)
(69 70)
(70 71)
(71 72)
(72 73)
(73 74)
(74 75)
(75 76)
(76 77)
(77 19)
)

// concaveStart mixedStart nonFeatureStart
0 0 8
// internalStart flatStart openStart multipleStart
0 0 0 78
// normals
76{(0 1 0)}
// normal volume types

76
(
0
0
0
0
0
0
0
0
0
0
0
0
0
0
0
0
0
0
0
0
0
0
0
0
0
0
0
0
0
0
0
0
0
0
0
0
0
0
0
0
0
0
0
0
0
0
0
0
0
0
0
0
0
0
0
0
0
0
0
0
0
0
0
0
0
0
0
0
0
0
0
0
0
0
0
0
)

// normalDirections

78
(
1(1)
1(1)
1(1)
1(1)
1(1)
1(1)
1(1)
1(1)
1(1)
1(1)
1(1)
1(1)
1(1)
1(1)
1(1)
1(1)
1(1)
1(1)
1(1)
1(1)
1(1)
1(1)
1(1)
1(1)
1(1)
1(1)
1(1)
1(1)
1(1)
1(1)
1(1)
1(1)
1(1)
1(1)
1(1)
1(1)
1(1)
1(1)
1(1)
1(1)
1(1)
1(1)
1(1)
1(1)
1(1)
1(1)
1(1)
1(1)
1(1)
1(1)
1(1)
1(1)
1(1)
1(1)
1(1)
1(1)
1(1)
1(1)
1(1)
1(1)
1(1)
1(1)
1(1)
1(1)
1(1)
1(1)
1(1)
1(1)
1(1)
1(1)
1(1)
1(1)
1(1)
1(1)
1(1)
1(1)
1(1)
1(1)
)

// edgeNormals

78
(
1(0)
1(1)
1(2)
1(3)
1(4)
1(5)
1(6)
1(7)
1(8)
1(9)
1(10)
1(11)
1(12)
1(13)
1(14)
1(15)
1(16)
1(17)
1(18)
1(19)
1(20)
1(21)
1(22)
1(23)
1(24)
1(25)
1(26)
1(27)
1(28)
1(29)
1(30)
1(30)
1(31)
1(32)
1(33)
1(34)
1(35)
1(36)
1(37)
1(38)
1(39)
1(40)
1(41)
1(42)
1(43)
1(44)
1(45)
1(46)
1(47)
1(48)
1(49)
1(50)
1(51)
1(52)
1(53)
1(54)
1(55)
1(56)
1(57)
1(58)
1(59)
1(60)
1(61)
1(61)
1(62)
1(63)
1(64)
1(65)
1(66)
1(67)
1(68)
1(69)
1(70)
1(71)
1(72)
1(73)
1(74)
1(75)
)

// featurePointNormals

8
(
1(0)
1(1)
1(10)
1(11)
1(14)
1(30)
1(45)
1(61)
)

// featurePointEdges

8
(
2(0 2)
2(1 3)
2(10 12)
2(11 13)
2(14 15)
2(30 31)
2(46 47)
2(62 63)
)

// regionEdges

78
(
0
1
2
3
4
5
6
7
8
9
10
11
12
13
14
15
16
17
18
19
20
21
22
23
24
25
26
27
28
29
30
31
32
33
34
35
36
37
38
39
40
41
42
43
44
45
46
47
48
49
50
51
52
53
54
55
56
57
58
59
60
61
62
63
64
65
66
67
68
69
70
71
72
73
74
75
76
77
)



// ************************************************************************* //
