/*--------------------------------*- C++ -*----------------------------------*\
  =========                 |
  \\      /  F ield         | OpenFOAM: The Open Source CFD Toolbox
   \\    /   O peration     | Website:  https://openfoam.org
    \\  /    A nd           | Version:  12
     \\/     M anipulation  |
\*---------------------------------------------------------------------------*/
FoamFile
{
    format      ascii;
    class       extendedFeatureEdgeMesh;
    location    "constant/extendedFeatureEdgeMesh";
    object      exportacaoSTL_canyon.extendedFeatureEdgeMesh;
}
// * * * * * * * * * * * * * * * * * * * * * * * * * * * * * * * * * * * * * //

// points

134
(
(25.63607 1 -20.87476)
(25.63607 1 29.12524)
(-24.36393 1 29.12524)
(-24.36393 1 -20.87476)
(3.640393 13 -13.37986)
(8.640393 13 -13.37986)
(-7.359607 13 -13.33876)
(-2.359607 13 -13.33876)
(3.640393 13 21.62014)
(8.640393 13 21.62014)
(-7.359607 13 21.65854)
(-2.359607 13 21.65854)
(3.340393 6.398959 4.627141)
(3.340393 6.398959 3.627141)
(3.340393 3.399041 4.625889)
(3.340393 3.399041 3.625889)
(3.340393 9.399092 4.627276)
(3.340393 9.399092 3.627276)
(3.340393 12.39869 4.626478)
(3.340393 12.39869 3.626478)
(-2.059607 3.400006 4.626369)
(-2.059607 3.400006 3.626369)
(-2.059607 6.400995 4.625693)
(-2.059607 6.400995 3.625693)
(-2.059607 9.400427 4.626168)
(-2.059607 9.400427 3.626168)
(-2.059607 12.40042 4.626169)
(-2.059607 12.40042 3.626169)
(-2.359607 1 1.62009)
(-2.359607 1 -13.33876)
(3.640393 1 1.62009)
(3.640393 1 -13.37986)
(-24.36393 -0 29.12524)
(-24.36393 -0 -20.87476)
(25.63607 -0 -20.87476)
(25.63607 -0 29.12524)
(25.63607 1 -13.37986)
(25.63607 1 21.62014)
(-24.36393 1 -13.33876)
(-24.36393 1 21.65854)
(-2.359607 1 6.62009)
(3.640393 1 6.62009)
(8.640393 4 6.62009)
(8.640393 4 1.62009)
(8.640393 1 6.62009)
(8.640393 1 1.62009)
(3.640393 4 1.62009)
(3.640393 4 6.62009)
(8.640393 7 6.62009)
(8.640393 7 1.62009)
(3.640393 7 1.62009)
(3.640393 7 6.62009)
(8.640393 10 6.62009)
(8.640393 10 1.62009)
(3.640393 10 1.62009)
(3.640393 10 6.62009)
(8.640393 13 6.62009)
(8.640393 13 1.62009)
(3.640393 13 1.62009)
(3.640393 13 6.62009)
(-7.359607 1 6.62009)
(-7.359607 1 1.62009)
(-7.359607 4 1.62009)
(-7.359607 4 6.62009)
(-2.359607 4 6.62009)
(-2.359607 4 1.62009)
(-7.359607 7 1.62009)
(-7.359607 7 6.62009)
(-2.359607 7 6.62009)
(-2.359607 7 1.62009)
(-7.359607 10 1.62009)
(-7.359607 10 6.62009)
(-2.359607 10 6.62009)
(-2.359607 10 1.62009)
(-7.359607 13 1.62009)
(-7.359607 13 6.62009)
(-2.359607 13 6.62009)
(-2.359607 13 1.62009)
(8.640393 1 -13.37986)
(-7.359607 1 -13.33876)
(3.640393 1 21.62014)
(8.640393 1 21.62014)
(-7.359607 1 21.65854)
(-2.359607 1 21.65854)
(3.340393 6.098959 4.627141)
(3.640393 6.098959 4.627141)
(3.640393 6.398959 4.627141)
(3.640393 6.398959 3.627141)
(3.340393 6.098959 3.627141)
(3.640393 6.098959 3.627141)
(3.340393 3.099041 4.625889)
(3.640393 3.099041 4.625889)
(3.640393 3.399041 4.625889)
(3.640393 3.399041 3.625889)
(3.340393 3.099041 3.625889)
(3.640393 3.099041 3.625889)
(3.340393 9.099092 4.627276)
(3.640393 9.399092 4.627276)
(3.640393 9.099092 4.627276)
(3.640393 9.399092 3.627276)
(3.340393 9.099092 3.627276)
(3.640393 9.099092 3.627276)
(3.340393 12.09869 4.626478)
(3.640393 12.39869 4.626478)
(3.640393 12.09869 4.626478)
(3.640393 12.39869 3.626478)
(3.340393 12.09869 3.626478)
(3.640393 12.09869 3.626478)
(-2.359607 3.100006 4.626369)
(-2.359607 3.400006 4.626369)
(-2.059607 3.100006 4.626369)
(-2.359607 3.100006 3.626369)
(-2.059607 3.100006 3.626369)
(-2.359607 3.400006 3.626369)
(-2.359607 6.100995 4.625693)
(-2.359607 6.400995 4.625693)
(-2.059607 6.100995 4.625693)
(-2.359607 6.100995 3.625693)
(-2.059607 6.100995 3.625693)
(-2.359607 6.400995 3.625693)
(-2.359607 9.100427 4.626168)
(-2.359607 9.400427 4.626168)
(-2.059607 9.100427 4.626168)
(-2.359607 9.100427 3.626168)
(-2.059607 9.100427 3.626168)
(-2.359607 9.400427 3.626168)
(-2.359607 12.10042 4.626169)
(-2.359607 12.40042 4.626169)
(-2.059607 12.10042 4.626169)
(-2.359607 12.10042 3.626169)
(-2.059607 12.10042 3.626169)
(-2.359607 12.40042 3.626169)
(8.640393 1 -8.37986)
(8.640393 1 -3.37991)
)

// edges

210
(
(28 29)
(31 30)
(32 33)
(33 34)
(34 35)
(35 32)
(40 28)
(30 41)
(45 44)
(60 61)
(132 133)
(133 45)
(78 132)
(31 78)
(61 79)
(79 29)
(80 41)
(81 80)
(44 81)
(82 60)
(83 82)
(40 83)
(84 88)
(90 94)
(96 100)
(102 106)
(111 112)
(112 110)
(117 118)
(118 116)
(123 124)
(124 122)
(129 130)
(130 128)
(0 34)
(36 0)
(37 36)
(35 1)
(1 37)
(32 2)
(2 1)
(33 3)
(3 38)
(38 39)
(39 2)
(0 3)
(56 57)
(58 59)
(74 75)
(76 77)
(31 4)
(4 58)
(57 5)
(5 78)
(5 4)
(79 6)
(6 74)
(77 7)
(7 29)
(7 6)
(59 8)
(8 80)
(9 81)
(8 9)
(9 56)
(75 10)
(10 82)
(11 83)
(10 11)
(11 76)
(85 84)
(84 12)
(12 86)
(12 13)
(13 87)
(13 88)
(88 89)
(91 90)
(90 14)
(14 92)
(14 15)
(15 93)
(15 94)
(94 95)
(16 97)
(96 16)
(98 96)
(16 17)
(17 99)
(100 101)
(17 100)
(18 103)
(102 18)
(104 102)
(18 19)
(19 105)
(106 107)
(19 106)
(110 108)
(109 20)
(20 110)
(21 113)
(112 21)
(21 20)
(116 114)
(115 22)
(22 116)
(23 119)
(118 23)
(23 22)
(121 24)
(122 120)
(24 122)
(25 125)
(124 25)
(25 24)
(127 26)
(128 126)
(26 128)
(27 131)
(130 27)
(27 26)
(30 28)
(29 31)
(41 40)
(42 43)
(44 42)
(43 45)
(30 46)
(46 47)
(47 41)
(48 49)
(49 43)
(42 48)
(46 50)
(50 51)
(51 47)
(52 53)
(53 49)
(48 52)
(50 54)
(54 55)
(55 51)
(57 53)
(52 56)
(54 58)
(59 55)
(56 59)
(58 57)
(61 62)
(62 63)
(63 60)
(64 65)
(65 28)
(40 64)
(62 66)
(66 67)
(67 63)
(68 69)
(69 65)
(64 68)
(66 70)
(70 71)
(71 67)
(72 73)
(73 69)
(68 72)
(70 74)
(75 71)
(77 73)
(72 76)
(74 77)
(76 75)
(39 82)
(81 37)
(83 80)
(78 36)
(38 79)
(86 85)
(87 86)
(89 87)
(89 85)
(92 91)
(93 92)
(95 93)
(95 91)
(97 98)
(99 97)
(101 99)
(101 98)
(103 104)
(105 103)
(107 105)
(107 104)
(108 109)
(108 111)
(113 111)
(109 113)
(114 115)
(114 117)
(119 117)
(115 119)
(120 121)
(120 123)
(125 123)
(121 125)
(126 127)
(126 129)
(131 129)
(127 131)
)

// concaveStart mixedStart nonFeatureStart
0 28 132
// internalStart flatStart openStart multipleStart
34 122 178 210
// normals

215
(
(0 -1 0)
(0 -1 0)
(-1 0 0)
(0 -1 0)
(1 0 0)
(0 -1 0)
(0 -1 0)
(1 0 0)
(0 -0 1)
(0 -1 0)
(-1 0 0)
(0 0 -1)
(-1 0 -0)
(-0 -1 -0)
(-1 0 -0)
(0 -1 0)
(-1 0 0)
(-0 -0 -1)
(0 -1 0)
(1 0 -0)
(0 -1 0)
(1 0 0)
(-0 0 1)
(0 -1 0)
(1 0 -0)
(0 -1 0)
(0 -1 0)
(0 -1 0)
(-1 0 0)
(0 -1 0)
(1 0 0)
(0 -1 0)
(-1 -0 -0)
(-1 0 0)
(-1 0 0)
(-1 0 0)
(-1 -0 0)
(0 -1 0)
(1 0 -0)
(1 0 0)
(1 0 0)
(-1 0 -0)
(-1 0 0)
(-1 0 -0)
(-1 0 0)
(1 -0 0)
(1 0 -0)
(1 0 0)
(1 0 0)
(-1 0 -0)
(-1 0 0)
(-1 0 0)
(-1 0 0)
(1 -0 0)
(1 0 -0)
(1 0 0)
(1 0 0)
(-1 0 -0)
(0 -1 0)
(-1 -0 -0)
(-1 0 0)
(1 0 0)
(1 0 -0)
(0 -1 0)
(1 0 -0)
(0 -1 0)
(0 -1 0)
(1 0 0)
(1 0 0)
(-0 -1 0)
(1 0 -0)
(1 0 0)
(1 0 0)
(-1 0 -0)
(-1 0 0)
(-1 0 0)
(1 -0 0)
(1 0 -0)
(1 0 0)
(1 0 0)
(-1 0 -0)
(-1 0 0)
(-1 -0 0)
(-1 0 0)
(1 -0 0)
(1 0 -0)
(1 0 0)
(1 0 0)
(-1 0 -0)
(-1 0 0)
(-1 -0 -0)
(-1 0 0)
(1 0 0)
(1 0 -0)
(0 -1 0)
(1 0 -0)
(-1 0 -0)
(0 -1 0)
(-1 0 0)
(-1 0 0)
(0 -1 0)
(0 -1 0)
(1 0 0)
(-0 0 1)
(0 -1 0)
(-1 0 0)
(0 -1 0)
(0 -1 0)
(-1 0 0)
(0 -0 1)
(0 -1 0)
(0 -1 0)
(0 -1 -0)
(1 0 0)
(-0 0 1)
(0 -1 0)
(-1 0 0)
(0 -0 1)
(-0 -1 0)
(1 0 -0)
(0 0 -1)
(0 -1 0)
(-0 -0 -1)
(-1 0 0)
(0 -1 0)
(-0 -1 0)
(0 -1 0)
(1 0 -0)
(0 0 -1)
(0 -1 0)
(-0 -0 -1)
(-1 0 0)
(0 -1 0)
(0 -1 0)
(0 -1 0)
(0 0 -1)
(0 -1 0)
(1 -0 0)
(-0 -0 -1)
(0 -1 0)
(1 0 -0)
(0 -1 0)
(-0 0 1)
(0 -0 1)
(0 -1 0)
(0 0 -1)
(0 -1 0)
(1 0 -0)
(-0 -0 -1)
(0 -1 0)
(0 -1 0)
(-0 0 1)
(1 0 0)
(0 -0 1)
(0 -1 0)
(0 0 -1)
(0 -1 0)
(1 0 -0)
(0 -0 -1)
(0 -1 0)
(0 -1 0)
(0 -0 1)
(0 0 1)
(0 -1 0)
(1 0 0)
(0 0 -1)
(0 -1 0)
(1 0 -0)
(0 -0 -1)
(0 -1 0)
(0 -1 0)
(0 -0 1)
(0 0 1)
(0 -1 0)
(1 0 0)
(0 0 -1)
(0 -1 0)
(-0 -0 -1)
(0 -1 0)
(-1 -0 -0)
(0 -1 0)
(0 -0 1)
(-1 0 0)
(-0 0 1)
(0 -1 0)
(0 0 -1)
(0 -1 0)
(-0 -0 -1)
(0 -1 0)
(-1 0 0)
(0 -1 0)
(0 -0 1)
(-0 0 1)
(0 -1 0)
(-1 0 -0)
(0 0 -1)
(0 -1 0)
(0 -0 -1)
(0 -1 0)
(-1 0 0)
(0 -1 0)
(0 0 1)
(0 -0 1)
(0 -1 0)
(-1 0 -0)
(0 0 -1)
(0 -1 0)
(0 -0 -1)
(0 -1 0)
(-1 0 0)
(0 -1 0)
(0 0 1)
(0 -0 1)
(0 -1 0)
(-1 0 -0)
)

// normal volume types

215
(
0
0
0
0
0
0
0
0
0
0
0
0
0
0
0
0
0
0
0
0
0
0
0
0
0
0
0
0
0
0
0
0
0
0
0
0
0
0
0
0
0
0
0
0
0
0
0
0
0
0
0
0
0
0
0
0
0
0
0
0
0
0
0
0
0
0
0
0
0
0
0
0
0
0
0
0
0
0
0
0
0
0
0
0
0
0
0
0
0
0
0
0
0
0
0
0
0
0
0
0
0
0
0
0
0
0
0
0
0
0
0
0
0
0
0
0
0
0
0
0
0
0
0
0
0
0
0
0
0
0
0
0
0
0
0
0
0
0
0
0
0
0
0
0
0
0
0
0
0
0
0
0
0
0
0
0
0
0
0
0
0
0
0
0
0
0
0
0
0
0
0
0
0
0
0
0
0
0
0
0
0
0
0
0
0
0
0
0
0
0
0
0
0
0
0
0
0
0
0
0
0
0
0
0
0
0
0
0
0
0
0
0
0
0
0
)

// normalDirections

210
(
2(1 -1)
2(1 -1)
2{1}
2{1}
2{1}
2{1}
2(1 -1)
2(1 -1)
2(1 -1)
2(1 -1)
2(1 -1)
2(1 -1)
2(1 -1)
2(1 -1)
2(1 -1)
2(1 -1)
2(1 -1)
2(1 -1)
2(1 -1)
2(1 -1)
2(1 -1)
2(1 -1)
2{1}
2{1}
2{1}
2{1}
2{1}
2{1}
2{1}
2{1}
2{1}
2{1}
2{1}
2{1}
2(1 -1)
2(1 -1)
2(1 -1)
2(1 -1)
2(1 -1)
2(1 -1)
2(1 -1)
2(1 -1)
2(1 -1)
2(1 -1)
2(1 -1)
2(1 -1)
2(1 -1)
2(1 -1)
2(1 -1)
2(1 -1)
2(1 -1)
2(1 -1)
2(1 -1)
2(1 -1)
2(1 -1)
2(1 -1)
2(1 -1)
2(1 -1)
2(1 -1)
2(1 -1)
2(1 -1)
2(1 -1)
2(1 -1)
2(1 -1)
2(1 -1)
2(1 -1)
2(1 -1)
2(1 -1)
2(1 -1)
2(1 -1)
2{1}
2(1 -1)
2(1 -1)
2(1 -1)
2(1 -1)
2(1 -1)
2{1}
2{1}
2(1 -1)
2(1 -1)
2(1 -1)
2(1 -1)
2(1 -1)
2{1}
2(1 -1)
2(1 -1)
2{1}
2(1 -1)
2(1 -1)
2{1}
2(1 -1)
2(1 -1)
2(1 -1)
2{1}
2(1 -1)
2(1 -1)
2{1}
2(1 -1)
2{1}
2(1 -1)
2(1 -1)
2(1 -1)
2(1 -1)
2(1 -1)
2{1}
2(1 -1)
2(1 -1)
2(1 -1)
2(1 -1)
2(1 -1)
2(1 -1)
2{1}
2(1 -1)
2(1 -1)
2(1 -1)
2(1 -1)
2(1 -1)
2{1}
2(1 -1)
2(1 -1)
2(1 -1)
2(1 -1)
2(1 -1)
2(1 -1)
2(1 -1)
2(1 -1)
2(1 -1)
2(1 -1)
2(1 -1)
2(1 -1)
2(1 -1)
2(1 -1)
2(1 -1)
2(1 -1)
2(1 -1)
2(1 -1)
2(1 -1)
2(1 -1)
2(1 -1)
2(1 -1)
2(1 -1)
2(1 -1)
2(1 -1)
2(1 -1)
2(1 -1)
2(1 -1)
2(1 -1)
2(1 -1)
2(1 -1)
2(1 -1)
2(1 -1)
2(1 -1)
2(1 -1)
2(1 -1)
2(1 -1)
2(1 -1)
2(1 -1)
2(1 -1)
2(1 -1)
2(1 -1)
2(1 -1)
2(1 -1)
2(1 -1)
2(1 -1)
2(1 -1)
2(1 -1)
2(1 -1)
2(1 -1)
2(1 -1)
2(1 -1)
2(1 -1)
2(1 -1)
2(1 -1)
2(1 -1)
2(1 -1)
2(1 -1)
2(1 -1)
2(1 -1)
1(1)
1(1)
1(1)
1(1)
1(1)
1(1)
1(1)
1(1)
1(1)
1(1)
1(1)
1(1)
1(1)
1(1)
1(1)
1(1)
1(1)
1(1)
1(1)
1(1)
1(1)
1(1)
1(1)
1(1)
1(1)
1(1)
1(1)
1(1)
1(1)
1(1)
1(1)
1(1)
)

// edgeNormals

210
(
2(0 2)
2(3 4)
2(6 7)
2(6 8)
2(9 10)
2(9 11)
2(1 28)
2(29 30)
2(35 37)
2(67 69)
2(105 106)
2(36 107)
2(108 110)
2(109 111)
2(68 112)
2(117 118)
2(40 31)
2(120 121)
2(34 125)
2(72 126)
2(128 129)
2(75 133)
2(136 137)
2(146 152)
2(159 164)
2(169 174)
2(180 181)
2(180 182)
2(190 191)
2(190 189)
2(200 201)
2(200 199)
2(210 211)
2(210 209)
2(12 8)
2(12 13)
2(14 15)
2(16 17)
2(16 18)
2(11 19)
2(17 20)
2(21 22)
2(21 23)
2(24 25)
2(19 26)
2(22 27)
2(57 58)
2(62 63)
2(93 94)
2(96 97)
2(102 103)
2(61 66)
2(59 104)
2(108 109)
2(103 104)
2(113 114)
2(92 100)
2(98 115)
2(116 117)
2(114 115)
2(64 65)
2(119 120)
2(122 123)
2(122 124)
2(60 124)
2(95 101)
2(127 128)
2(130 131)
2(130 132)
2(99 132)
2(135 136)
2(135 137)
2(138 139)
2(139 140)
2(141 142)
2(142 140)
2(143 144)
2(145 146)
2(145 147)
2(148 149)
2(149 147)
2(150 151)
2(151 152)
2(153 154)
2(155 156)
2(155 157)
2(158 159)
2(156 157)
2(160 161)
2(162 163)
2(162 164)
2(165 166)
2(165 167)
2(168 169)
2(166 167)
2(170 171)
2(172 173)
2(172 174)
2(175 176)
2(177 178)
2(177 179)
2(183 184)
2(181 182)
2(184 179)
2(185 186)
2(187 188)
2(187 189)
2(192 193)
2(191 194)
2(193 194)
2(195 196)
2(197 198)
2(197 199)
2(202 203)
2(202 204)
2(203 204)
2(205 206)
2(207 208)
2(207 209)
2(212 213)
2(212 214)
2(213 214)
2(0 1)
2(3 5)
2(29 31)
2(32 33)
2(32 34)
2(35 36)
2(30 4)
2(38 39)
2(38 40)
2(41 42)
2(41 43)
2(33 44)
2(39 45)
2(46 47)
2(46 48)
2(49 50)
2(49 51)
2(42 52)
2(47 53)
2(54 55)
2(54 56)
2(57 59)
2(50 60)
2(55 61)
2(62 64)
2(63 65)
2(58 66)
2(67 68)
2(70 71)
2(70 72)
2(73 74)
2(73 2)
2(28 75)
2(71 76)
2(77 78)
2(77 79)
2(80 81)
2(80 82)
2(74 83)
2(78 84)
2(85 86)
2(85 87)
2(88 89)
2(88 90)
2(81 91)
2(86 92)
2(93 95)
2(96 98)
2(89 99)
2(94 100)
2(97 101)
2(26 126)
2(18 125)
2(134 133)
2(110 13)
2(112 23)
1(138)
1(141)
1(143)
1(144)
1(148)
1(150)
1(153)
1(154)
1(158)
1(160)
1(161)
1(163)
1(168)
1(170)
1(171)
1(173)
1(175)
1(176)
1(183)
1(178)
1(185)
1(186)
1(192)
1(188)
1(195)
1(198)
1(201)
1(196)
1(205)
1(208)
1(211)
1(206)
)

// featurePointNormals

132
(
3(12 8 13)
3(16 17 18)
3(11 19 20)
3(21 22 23)
3(102 103 66)
3(59 104 109)
3(113 114 100)
3(98 115 117)
3(64 65 120)
3(122 123 124)
3(95 101 128)
3(130 131 132)
3(135 137 139)
3(139 140 142)
3(145 147 149)
3(149 147 151)
3(155 156 157)
3(156 157 161)
3(165 166 167)
3(166 167 171)
3(177 178 179)
3(183 184 182)
3(187 188 189)
3(192 193 194)
3(195 196 199)
3(202 203 204)
3(205 206 209)
3(212 213 214)
2(0 2)
3(0 2 117)
2(3 4)
3(3 4 109)
3(6 7 11)
3(6 7 8)
3(6 8 10)
3(9 10 11)
2(12 13)
2(14 15)
2(21 23)
2(24 25)
2(1 28)
2(29 30)
1(32)
1(32)
2(35 37)
2(35 37)
1(30)
1(38)
1(41)
1(41)
1(39)
1(46)
1(49)
1(49)
1(47)
1(54)
2(57 58)
2(57 58)
2(62 63)
2(62 63)
2(67 69)
2(67 69)
1(67)
1(70)
1(73)
1(73)
1(71)
1(77)
1(80)
1(80)
1(78)
1(85)
1(88)
1(88)
2(93 94)
2(93 94)
2(96 97)
2(96 97)
3(108 110 109)
3(68 112 117)
3(40 31 120)
3(120 121 34)
3(72 126 128)
3(128 129 75)
3(136 137 135)
2(135 136)
2(138 139)
2(141 142)
3(136 137 142)
2(143 144)
3(146 152 145)
2(145 146)
2(148 149)
2(150 151)
3(146 152 151)
2(153 154)
3(159 164 155)
2(155 156)
2(158 159)
2(160 161)
3(159 164 162)
2(162 163)
3(169 174 165)
2(165 166)
2(168 169)
2(170 171)
3(169 174 172)
2(172 173)
2(175 176)
2(177 178)
3(180 182 175)
2(180 181)
3(180 181 182)
2(183 184)
2(185 186)
2(187 188)
3(190 189 185)
2(190 191)
3(190 191 189)
2(192 193)
2(197 198)
2(195 196)
3(200 199 197)
2(200 201)
3(200 201 199)
2(202 203)
2(207 208)
2(205 206)
3(210 209 207)
2(210 211)
3(210 211 209)
2(212 213)
)

// featurePointEdges

132
(
3(34 45 35)
3(37 40 38)
3(40 44 39)
3(41 45 42)
3(50 54 51)
3(53 54 52)
3(55 59 56)
3(58 59 57)
3(60 63 61)
3(62 64 63)
3(65 68 66)
3(67 69 68)
3(72 73 71)
3(74 75 73)
3(79 80 78)
3(81 82 80)
3(84 87 85)
3(88 90 87)
3(91 94 92)
3(95 97 94)
3(99 103 100)
3(102 103 101)
3(105 109 106)
3(108 109 107)
3(112 115 110)
3(113 115 114)
3(118 121 116)
3(119 121 120)
4(122 6 153 0)
4(123 15 58 0)
4(1 128 7 122)
4(1 50 13 123)
3(5 39 2)
3(2 41 3)
3(4 34 3)
3(4 37 5)
3(36 176 35)
3(38 174 36)
3(42 177 43)
3(44 173 43)
4(124 21 154 6)
4(7 130 16 124)
3(125 133 126)
3(127 132 125)
3(8 18 126)
3(127 11 8)
3(129 134 128)
3(129 136 130)
3(133 139 131)
3(131 138 132)
3(135 140 134)
3(135 142 136)
3(139 144 137)
3(137 143 138)
3(141 145 140)
3(141 146 142)
4(144 64 147 46)
4(46 148 52 143)
4(47 148 51 145)
4(47 147 60 146)
3(151 19 9)
3(149 14 9)
3(150 155 149)
3(150 157 151)
3(154 160 152)
3(152 159 153)
3(156 161 155)
3(156 163 157)
3(160 166 158)
3(158 165 159)
3(162 167 161)
3(162 168 163)
3(166 170 164)
3(164 169 165)
4(48 171 56 167)
4(48 172 65 168)
4(170 69 172 49)
4(49 171 57 169)
4(53 13 176 12)
4(55 15 177 14)
4(61 17 175 16)
4(62 18 174 17)
4(66 20 173 19)
4(67 21 175 20)
3(70 22 71)
3(70 178 181)
3(72 178 179)
3(74 179 180)
3(76 22 75)
3(76 180 181)
3(77 23 78)
3(77 182 185)
3(79 182 183)
3(81 183 184)
3(83 23 82)
3(83 184 185)
3(86 24 85)
3(84 186 187)
3(86 186 189)
3(88 187 188)
3(89 24 90)
3(89 188 189)
3(93 25 92)
3(91 190 191)
3(93 190 193)
3(95 191 192)
3(96 25 97)
3(96 192 193)
3(98 194 195)
3(99 194 197)
3(100 27 98)
3(26 195 196)
3(26 102 27)
3(101 196 197)
3(104 198 199)
3(105 198 201)
3(106 29 104)
3(28 199 200)
3(28 108 29)
3(107 200 201)
3(111 202 203)
3(110 202 205)
3(111 31 112)
3(30 203 204)
3(30 114 31)
3(113 204 205)
3(117 206 207)
3(116 206 209)
3(117 33 118)
3(32 207 208)
3(32 120 33)
3(119 208 209)
)

// regionEdges

210
(
122
0
1
123
2
3
4
5
34
35
36
37
38
39
40
41
42
43
44
45
6
7
124
125
126
127
8
128
129
130
131
132
133
134
135
136
137
138
139
140
141
142
46
143
144
145
47
146
147
148
149
9
150
151
152
153
154
155
156
157
158
159
160
161
162
163
164
165
166
167
48
168
49
169
170
171
172
50
51
52
10
11
53
12
54
13
14
55
56
57
58
59
15
16
60
61
17
62
63
64
18
19
65
66
20
67
68
69
21
173
174
175
176
177
70
71
72
73
74
75
76
22
77
78
79
80
81
82
83
23
84
85
86
87
88
89
90
24
91
92
93
94
95
96
97
25
98
99
100
26
27
101
102
103
104
105
106
28
29
107
108
109
110
111
112
30
31
113
114
115
116
117
118
32
33
119
120
121
178
179
180
181
182
183
184
185
186
187
188
189
190
191
192
193
194
195
196
197
198
199
200
201
202
203
204
205
206
207
208
209
)



// ************************************************************************* //
