/*--------------------------------*- C++ -*----------------------------------*\
  =========                 |
  \\      /  F ield         | OpenFOAM: The Open Source CFD Toolbox
   \\    /   O peration     | Website:  https://openfoam.org
    \\  /    A nd           | Version:  12
     \\/     M anipulation  |
\*---------------------------------------------------------------------------*/
FoamFile
{
    format      ascii;
    class       extendedFeatureEdgeMesh;
    location    "constant/extendedFeatureEdgeMesh";
    object      fachada_2-Zona_1.extendedFeatureEdgeMesh;
}
// * * * * * * * * * * * * * * * * * * * * * * * * * * * * * * * * * * * * * //

// points
6((25 25 1) (25 25 0) (-25 25 0) (-25 25 1) (17.49489975 25 1) (-17.50510025 25 1))
// edges
6((4 0) (0 1) (1 2) (2 3) (5 4) (3 5))
// concaveStart mixedStart nonFeatureStart
0 0 4
// internalStart flatStart openStart multipleStart
0 0 0 6
// normals
4{(-0 1 0)}
// normal volume types

4
(
0
0
0
0
)

// normalDirections

6
(
1(1)
1(1)
1(1)
1(1)
1(1)
1(1)
)

// edgeNormals

6
(
1(0)
1(0)
1(1)
1(1)
1(2)
1(3)
)

// featurePointNormals

4
(
1(0)
1(0)
1(1)
1(1)
)

// featurePointEdges

4
(
2(0 1)
2(1 2)
2(2 3)
2(3 5)
)

// regionEdges
6(0 1 2 3 4 5)


// ************************************************************************* //
