/*--------------------------------*- C++ -*----------------------------------*\
  =========                 |
  \\      /  F ield         | OpenFOAM: The Open Source CFD Toolbox
   \\    /   O peration     | Website:  https://openfoam.org
    \\  /    A nd           | Version:  12
     \\/     M anipulation  |
\*---------------------------------------------------------------------------*/
FoamFile
{
    format      ascii;
    class       extendedFeatureEdgeMesh;
    location    "constant/extendedFeatureEdgeMesh";
    object      fachada_1-Zona_1.extendedFeatureEdgeMesh;
}
// * * * * * * * * * * * * * * * * * * * * * * * * * * * * * * * * * * * * * //

// points

12
(
(5.4377 -6.29932 5)
(5.4377 -6.29932 0)
(5.4377 -3.58251 0.823868)
(5.4377 -3.58251 2.92387)
(5.4377 2.40521 3.60484)
(5.4377 3.40521 3.60484)
(5.4377 6.33694 5)
(5.4377 -2.58251 2.92387)
(5.4377 -2.58251 0.823868)
(5.4377 6.33694 0)
(5.4377 3.40521 2.60484)
(5.4377 2.40521 2.60484)
)

// edges

12
(
(0 1)
(2 3)
(4 5)
(6 0)
(3 7)
(8 2)
(7 8)
(10 11)
(11 4)
(1 9)
(9 6)
(5 10)
)

// concaveStart mixedStart nonFeatureStart
0 0 12
// internalStart flatStart openStart multipleStart
0 0 0 12
// normals
12{(1 0 0)}
// normal volume types

12
(
0
0
0
0
0
0
0
0
0
0
0
0
)

// normalDirections

12
(
1(1)
1(1)
1(1)
1(1)
1(1)
1(1)
1(1)
1(1)
1(1)
1(1)
1(1)
1(1)
)

// edgeNormals

12
(
1(0)
1(1)
1(2)
1(3)
1(4)
1(5)
1(6)
1(7)
1(8)
1(9)
1(10)
1(11)
)

// featurePointNormals

12
(
1(0)
1(0)
1(1)
1(1)
1(2)
1(2)
1(3)
1(4)
1(5)
1(9)
1(7)
1(7)
)

// featurePointEdges

12
(
2(0 3)
2(0 9)
2(1 5)
2(1 4)
2(2 8)
2(2 11)
2(3 10)
2(4 6)
2(5 6)
2(9 10)
2(7 11)
2(7 8)
)

// regionEdges

12
(
0
1
2
3
4
5
6
7
8
9
10
11
)



// ************************************************************************* //
