/*--------------------------------*- C++ -*----------------------------------*\
  =========                 |
  \\      /  F ield         | OpenFOAM: The Open Source CFD Toolbox
   \\    /   O peration     | Website:  https://openfoam.org
    \\  /    A nd           | Version:  12
     \\/     M anipulation  |
\*---------------------------------------------------------------------------*/
FoamFile
{
    format      ascii;
    class       extendedFeatureEdgeMesh;
    location    "constant/extendedFeatureEdgeMesh";
    object      fachada_2-Zona_2.003.extendedFeatureEdgeMesh;
}
// * * * * * * * * * * * * * * * * * * * * * * * * * * * * * * * * * * * * * //

// points

12
(
(0.4948499 2.70432 8.399999)
(-0.5051501 2.70432 8.399999)
(-0.5051501 2.70432 8.699999)
(0.4948499 2.70432 8.699999)
(0.4948499 3.00432 8.399999)
(-0.5051501 3.00432 8.699999)
(-0.5051501 3.00432 8.399999)
(0.4948499 3.00432 8.699999)
(-0.00515008 3.00432 8.399999)
(-0.00515008 3.00432 8.699999)
(-0.00515008 2.70432 8.399999)
(-0.00515008 2.70432 8.699999)
)

// edges

16
(
(4 0)
(0 10)
(6 1)
(1 2)
(2 5)
(1 10)
(11 2)
(0 3)
(3 11)
(3 7)
(8 4)
(5 6)
(7 9)
(6 8)
(9 5)
(4 7)
)

// concaveStart mixedStart nonFeatureStart
4 4 8
// internalStart flatStart openStart multipleStart
10 10 10 16
// normals

16
(
(0 0 -1)
(-1 0 -0)
(0 0 1)
(0 0 -1)
(0 0 1)
(1 0 -0)
(1 0 0)
(0 0 -1)
(0 -1 0)
(0 0 -1)
(-1 -0 0)
(0 -1 0)
(0 -1 0)
(0 0 1)
(0 -1 0)
(0 0 1)
)

// normal volume types

16
(
0
0
0
0
0
0
0
0
0
0
0
0
0
0
0
0
)

// normalDirections

16
(
2(1 -1)
2(1 -1)
2(1 -1)
2(1 -1)
2(1 -1)
2(1 -1)
2(1 -1)
2(1 -1)
2(1 -1)
2(1 -1)
1(1)
1(1)
1(1)
1(1)
1(1)
1(1)
)

// edgeNormals

16
(
2(0 6)
2(7 8)
2(1 9)
2(10 11)
2(10 4)
2(12 9)
2(11 13)
2(8 6)
2(14 15)
2(15 5)
1(0)
1(1)
1(2)
1(3)
1(4)
1(5)
)

// featurePointNormals

8
(
3(0 6 8)
3(1 9 11)
3(10 11 4)
3(8 6 15)
2(0 6)
2(10 4)
2(1 9)
2(15 5)
)

// featurePointEdges

8
(
3(1 7 0)
3(3 5 2)
3(3 6 4)
3(8 9 7)
3(0 10 15)
3(4 11 14)
3(2 11 13)
3(9 12 15)
)

// regionEdges
6(10 11 12 13 14 15)


// ************************************************************************* //
