/*--------------------------------*- C++ -*----------------------------------*\
  =========                 |
  \\      /  F ield         | OpenFOAM: The Open Source CFD Toolbox
   \\    /   O peration     | Website:  https://openfoam.org
    \\  /    A nd           | Version:  12
     \\/     M anipulation  |
\*---------------------------------------------------------------------------*/
FoamFile
{
    format      ascii;
    class       extendedFeatureEdgeMesh;
    location    "constant/extendedFeatureEdgeMesh";
    object      fachada_3-Zona_6.001.extendedFeatureEdgeMesh;
}
// * * * * * * * * * * * * * * * * * * * * * * * * * * * * * * * * * * * * * //

// points

12
(
(0.4948499 -2.69568 2.7)
(-0.5051501 -2.69568 2.7)
(-0.5051501 -2.69568 2.4)
(0.4948499 -2.69568 2.4)
(0.4948499 -2.99568 2.7)
(-0.5051501 -2.99568 2.7)
(0.4948499 -2.99568 2.4)
(-0.5051501 -2.99568 2.4)
(-0.00515008 -2.99568 2.7)
(-0.00515008 -2.99568 2.4)
(-0.00515008 -2.69568 2.7)
(-0.00515008 -2.69568 2.4)
)

// edges

16
(
(4 0)
(0 10)
(10 1)
(1 5)
(2 1)
(11 2)
(3 11)
(0 3)
(6 3)
(2 7)
(8 4)
(5 8)
(4 6)
(7 5)
(9 7)
(6 9)
)

// concaveStart mixedStart nonFeatureStart
4 4 8
// internalStart flatStart openStart multipleStart
10 10 10 16
// normals

16
(
(0 0 1)
(0 0 1)
(1 0 0)
(-1 0 0)
(0 0 -1)
(0 0 -1)
(1 -0 0)
(0 0 1)
(0 1 -0)
(0 0 1)
(0 1 -0)
(0 1 0)
(-1 0 0)
(0 0 -1)
(0 1 0)
(0 0 -1)
)

// normal volume types

16
(
0
0
0
0
0
0
0
0
0
0
0
0
0
0
0
0
)

// normalDirections

16
(
2(1 -1)
2(1 -1)
2(1 -1)
2(1 -1)
2(1 -1)
2(1 -1)
2(1 -1)
2(1 -1)
2(1 -1)
2(1 -1)
1(1)
1(1)
1(1)
1(1)
1(1)
1(1)
)

// edgeNormals

16
(
2(0 6)
2(7 8)
2(9 10)
2(9 3)
2(11 12)
2(11 13)
2(14 15)
2(8 6)
2(2 15)
2(12 4)
1(0)
1(1)
1(2)
1(3)
1(4)
1(5)
)

// featurePointNormals

8
(
3(0 6 8)
3(9 10 3)
3(11 12 13)
3(14 15 6)
2(0 6)
2(9 3)
2(2 15)
2(12 4)
)

// featurePointEdges

8
(
3(1 7 0)
3(2 4 3)
3(4 9 5)
3(7 8 6)
3(0 10 12)
3(3 11 13)
3(8 12 15)
3(9 13 14)
)

// regionEdges
6(10 11 12 13 14 15)


// ************************************************************************* //
