/*--------------------------------*- C++ -*----------------------------------*\
  =========                 |
  \\      /  F ield         | OpenFOAM: The Open Source CFD Toolbox
   \\    /   O peration     | Website:  https://openfoam.org
    \\  /    A nd           | Version:  12
     \\/     M anipulation  |
\*---------------------------------------------------------------------------*/
FoamFile
{
    format      ascii;
    class       extendedFeatureEdgeMesh;
    location    "constant/extendedFeatureEdgeMesh";
    object      fachada_2-Zona_12.extendedFeatureEdgeMesh;
}
// * * * * * * * * * * * * * * * * * * * * * * * * * * * * * * * * * * * * * //

// points
7((17.49489975 8.004320145 13) (17.49489975 8.004320145 1) (2.49484992 8.004320145 1) (2.49484992 8.004320145 13) (2.49484992 8.004320145 4) (2.49484992 8.004320145 10) (2.49484992 8.004320145 7))
// edges
7((0 1) (1 2) (2 4) (5 3) (3 0) (4 6) (6 5))
// concaveStart mixedStart nonFeatureStart
0 0 4
// internalStart flatStart openStart multipleStart
0 0 0 7
// normals
5{(0 1 0)}
// normal volume types

5
(
0
0
0
0
0
)

// normalDirections

7
(
1(1)
1(1)
1(1)
1(1)
1(1)
1(1)
1(1)
)

// edgeNormals

7
(
1(0)
1(0)
1(1)
1(2)
1(2)
1(3)
1(4)
)

// featurePointNormals

4
(
1(0)
1(0)
1(0)
1(2)
)

// featurePointEdges

4
(
2(0 4)
2(0 1)
2(1 2)
2(3 4)
)

// regionEdges
7(0 1 2 3 4 5 6)


// ************************************************************************* //
