/*--------------------------------*- C++ -*----------------------------------*\
  =========                 |
  \\      /  F ield         | OpenFOAM: The Open Source CFD Toolbox
   \\    /   O peration     | Website:  https://openfoam.org
    \\  /    A nd           | Version:  12
     \\/     M anipulation  |
\*---------------------------------------------------------------------------*/
FoamFile
{
    format      ascii;
    class       extendedFeatureEdgeMesh;
    location    "constant/extendedFeatureEdgeMesh";
    object      fachada_1-Zona_1_001.extendedFeatureEdgeMesh;
}
// * * * * * * * * * * * * * * * * * * * * * * * * * * * * * * * * * * * * * //

// points

18
(
(5.480909824 -4.098330021 0.8961269855)
(5.480909824 -6.108419895 0)
(5.480909824 6.15418005 3.948489904)
(5.480909824 -6.108419895 3.948489904)
(5.480909824 -3.076760054 3.116309881)
(5.480909824 -2.076760054 3.116309881)
(5.480909824 -0.9160509706 3.092950106)
(5.480909824 0.603531003 3.092950106)
(5.480909824 6.15418005 0)
(5.480909824 -3.076760054 2.116309881)
(5.480909824 -0.9160509706 2.023190022)
(5.480909824 -2.076760054 2.116309881)
(5.480909824 0.603531003 2.023190022)
(5.480909824 -4.098330021 2.99612999)
(5.480909824 -5.098330021 0.8961269855)
(5.480909824 -5.098330021 2.99612999)
(5.480909824 -4.824697971 0.8961269855)
(5.480909824 -4.098330021 1.403182983)
)

// edges

18
(
(0 16)
(2 3)
(6 7)
(4 5)
(1 8)
(17 0)
(11 9)
(12 10)
(7 12)
(8 2)
(5 11)
(10 6)
(13 17)
(16 14)
(14 15)
(9 4)
(3 1)
(15 13)
)

// concaveStart mixedStart nonFeatureStart
0 0 16
// internalStart flatStart openStart multipleStart
0 0 0 18
// normals
18{(1 0 0)}
// normal volume types

18
(
0
0
0
0
0
0
0
0
0
0
0
0
0
0
0
0
0
0
)

// normalDirections

18
(
1(1)
1(1)
1(1)
1(1)
1(1)
1(1)
1(1)
1(1)
1(1)
1(1)
1(1)
1(1)
1(1)
1(1)
1(1)
1(1)
1(1)
1(1)
)

// edgeNormals

18
(
1(0)
1(1)
1(2)
1(3)
1(4)
1(5)
1(6)
1(7)
1(8)
1(9)
1(10)
1(11)
1(12)
1(13)
1(14)
1(15)
1(16)
1(17)
)

// featurePointNormals

16
(
1(0)
1(4)
1(1)
1(1)
1(3)
1(3)
1(2)
1(2)
1(4)
1(6)
1(7)
1(6)
1(7)
1(12)
1(13)
1(14)
)

// featurePointEdges

16
(
2(0 5)
2(4 16)
2(1 9)
2(1 16)
2(3 15)
2(3 10)
2(2 11)
2(2 8)
2(4 9)
2(6 15)
2(7 11)
2(6 10)
2(7 8)
2(12 17)
2(13 14)
2(14 17)
)

// regionEdges

18
(
0
1
2
3
4
5
6
7
8
9
10
11
12
13
14
15
16
17
)



// ************************************************************************* //
