/*--------------------------------*- C++ -*----------------------------------*\
  =========                 |
  \\      /  F ield         | OpenFOAM: The Open Source CFD Toolbox
   \\    /   O peration     | Website:  https://openfoam.org
    \\  /    A nd           | Version:  12
     \\/     M anipulation  |
\*---------------------------------------------------------------------------*/
FoamFile
{
    format      ascii;
    class       extendedFeatureEdgeMesh;
    location    "constant/extendedFeatureEdgeMesh";
    object      fachada_5-Zona_10.extendedFeatureEdgeMesh;
}
// * * * * * * * * * * * * * * * * * * * * * * * * * * * * * * * * * * * * * //

// points
9((-2.50515008 8.004320145 1) (-17.50510025 8.004320145 1) (-17.50510025 8.004320145 13) (-2.50515008 8.004320145 13) (-2.50515008 8.004320145 4) (-7.505149841 8.004320145 1) (-12.50510025 8.004320145 1) (-2.50515008 8.004320145 7) (-2.50515008 8.004320145 10))
// edges
9((4 0) (0 5) (6 1) (1 2) (5 6) (7 4) (2 3) (8 7) (3 8))
// concaveStart mixedStart nonFeatureStart
0 0 4
// internalStart flatStart openStart multipleStart
0 0 0 9
// normals
7{(0 1 0)}
// normal volume types

7
(
0
0
0
0
0
0
0
)

// normalDirections

9
(
1(1)
1(1)
1(1)
1(1)
1(1)
1(1)
1(1)
1(1)
1(1)
)

// edgeNormals

9
(
1(0)
1(0)
1(1)
1(1)
1(2)
1(3)
1(4)
1(5)
1(6)
)

// featurePointNormals

4
(
1(0)
1(1)
1(1)
1(4)
)

// featurePointEdges

4
(
2(0 1)
2(2 3)
2(3 6)
2(6 8)
)

// regionEdges
9(0 1 2 3 4 5 6 7 8)


// ************************************************************************* //
