/*--------------------------------*- C++ -*----------------------------------*\
  =========                 |
  \\      /  F ield         | OpenFOAM: The Open Source CFD Toolbox
   \\    /   O peration     | Website:  https://openfoam.org
    \\  /    A nd           | Version:  10
     \\/     M anipulation  |
\*---------------------------------------------------------------------------*/
FoamFile
{
    format      ascii;
    class       extendedFeatureEdgeMesh;
    location    "constant/extendedFeatureEdgeMesh";
    object      geom.extendedFeatureEdgeMesh;
}
// * * * * * * * * * * * * * * * * * * * * * * * * * * * * * * * * * * * * * //

// points

469
(
(-62.546 -99.1743 -1.30808)
(-64.4859 -76.9104 15.6424)
(-62.546 -99.1743 15.6424)
(-87.4538 -78.9142 -1.30808)
(-87.4538 -78.9142 15.6424)
(-85.5037 -101.178 -1.30808)
(-85.5037 -101.178 15.6424)
(7.59394 -45.2846 -1.30808)
(-78.7793 -52.8209 -1.30808)
(-78.7793 -52.8209 15.6486)
(7.59394 -45.2846 15.6486)
(-76.588 -77.968 -1.30808)
(-76.588 -77.968 15.6486)
(-61.6916 -108.904 -1.30808)
(-61.6916 -108.904 15.6486)
(-34.4418 -106.533 -1.30808)
(-34.4418 -106.533 15.6486)
(-12.5998 -89.2669 -1.30808)
(-12.5998 -89.2669 15.6486)
(11.2525 -87.1853 -1.30808)
(11.2525 -87.1853 15.6486)
(84.2973 -75.2969 -1.30808)
(90.9404 -170.776 -1.30808)
(90.9404 -170.776 13.4781)
(84.2973 -75.2969 13.4781)
(113.194 -169.841 -1.30808)
(113.194 -169.841 13.4781)
(122.583 -143.625 -1.30808)
(122.583 -143.625 13.4781)
(118.121 -98.8747 -1.30808)
(118.121 -98.8747 13.4781)
(105.255 -73.85 -1.30808)
(105.255 -73.85 13.4781)
(-179.858 -90.8371 -1.30808)
(-194.623 -92.5294 -1.30808)
(-194.623 -92.5294 14)
(-179.858 -90.8371 14)
(-191.598 -118.834 -1.30808)
(-191.598 -118.834 14)
(-176.822 -117.131 -1.30808)
(-176.822 -117.131 14)
(-75.905 113.702 -1.30808)
(-97.6367 112.032 -1.30808)
(-97.6367 112.032 15)
(-75.905 113.702 15)
(-88.6602 -4.88676 -1.30808)
(-88.6602 -4.88676 15)
(-66.2049 -3.16125 -1.30808)
(-66.2049 -3.16125 15)
(-56.1432 -11.3877 -1.30808)
(-56.1432 -11.3877 15)
(-30.2603 -9.39513 -1.30808)
(-30.2603 -9.39513 15)
(-39.8997 116.196 -1.30808)
(-39.8997 116.196 15)
(-65.0692 114.259 -1.30808)
(-65.0692 114.259 15)
(-138.304 -139.684 -1.30808)
(-163.624 -157.874 -1.30808)
(-163.624 -157.874 15.7798)
(-138.304 -139.684 15.7798)
(-162.94 -169.451 -1.30808)
(-162.94 -169.451 15.7798)
(-134.876 -166.011 -1.30808)
(-134.876 -166.011 15.7798)
(130.597 101.689 -1.30808)
(146.479 95.3217 -1.30808)
(146.479 95.3217 7)
(130.597 101.689 7)
(163.406 137.567 -1.30808)
(163.406 137.567 7)
(147.796 143.824 -1.30808)
(147.796 143.824 7)
(132.819 124.41 -1.30808)
(132.819 124.41 7)
(130.246 118.009 -1.30808)
(130.246 118.009 7)
(118.888 164.04 -1.30808)
(118.888 164.04 15)
(136.036 184.199 -1.30808)
(136.036 184.199 15)
(150.199 179.056 -1.30808)
(150.199 179.056 15)
(162.885 214.033 -1.30808)
(162.885 214.033 15)
(148.843 240.271 -1.30808)
(148.843 240.271 15)
(127.523 248.665 -1.30808)
(127.523 248.665 15)
(96.4121 173.357 -1.30808)
(96.4121 173.357 15)
(72.9975 -281.383 -1.30808)
(4.93943 -285.49 -1.30808)
(4.93943 -285.49 15.6653)
(72.9975 -281.383 15.6653)
(10.2764 -363.603 -1.30808)
(10.2764 -363.603 15.6653)
(77.7009 -359.529 -1.30808)
(77.7009 -359.529 15.6653)
(82.2504 303.457 -1.30808)
(62.1066 311.004 -1.30808)
(62.1066 311.004 16.0166)
(82.2504 303.457 16.0166)
(49.3807 276.985 -1.30808)
(49.3807 276.985 16.0166)
(69.5345 269.449 -1.30808)
(69.5345 269.449 16.0166)
(-53.9619 -125.101 -1.30808)
(-69.8735 -126.314 -1.30808)
(-69.8735 -126.314 25)
(-53.9619 -125.101 25)
(-65.2196 -187.373 -1.30808)
(-65.2196 -187.373 25)
(-49.3081 -186.159 -1.30808)
(-49.3081 -186.159 25)
(111.687 -175.808 -1.30808)
(90.7293 -177.767 -1.30808)
(90.7293 -177.767 13.6838)
(111.687 -175.808 13.6838)
(92.7694 -209.593 -1.30808)
(92.7694 -209.593 13.6838)
(100.539 -209.804 -1.30808)
(100.539 -209.804 13.6838)
(-137.048 -100.366 7.69442)
(-135.51 -114.681 7.69442)
(-122.624 -113.29 7.69442)
(-124.172 -98.9742 7.69442)
(-135.51 -114.681 -1.30808)
(-122.624 -113.29 -1.30808)
(-124.172 -98.9742 -1.30808)
(-137.048 -100.366 -1.30808)
(39.2977 121.583 -1.30808)
(-18.8615 117.175 -1.30808)
(-18.8615 117.175 15)
(39.2977 121.583 15)
(-9.26247 -9.45084 -1.30808)
(-9.26247 -9.45084 15)
(48.8862 -5.04287 -1.30808)
(48.8862 -5.04287 15)
(200.457 146.272 -1.30808)
(180.676 154.031 -1.30808)
(180.676 154.031 6)
(200.457 146.272 6)
(160.24 101.945 -1.30808)
(160.24 101.945 6)
(180.041 94.1746 -1.30808)
(180.041 94.1746 6)
(-168.31 121.382 -1.30808)
(-189.6 119.757 -1.30808)
(-189.6 119.757 15)
(-168.31 121.382 15)
(-180.371 -0.434593 -1.30808)
(-180.371 -0.434593 15)
(-156.981 1.35786 -1.30808)
(-156.981 1.35786 15)
(-149.613 31.5812 -1.30808)
(-149.613 31.5812 15)
(-127.058 33.3179 -1.30808)
(-127.058 33.3179 15)
(-133.27 114.258 -1.30808)
(-133.27 114.258 15)
(-155.846 112.522 -1.30808)
(-155.846 112.522 15)
(-55.3493 267.924 -1.30808)
(-76.4783 266.388 -1.30808)
(-76.4783 266.388 13.9901)
(-55.3493 267.924 13.9901)
(-70.6883 186.694 -1.30808)
(-70.6883 186.694 13.9901)
(-48.494 188.308 -1.30808)
(-48.494 188.308 13.9901)
(-37.437 188.998 -1.30808)
(-37.437 188.998 13.9901)
(-13.343 190.746 -1.30808)
(-13.343 190.746 13.9901)
(0.55872 213.244 -1.30808)
(0.55872 213.244 13.9901)
(-0.667545 230.109 -1.30808)
(-0.667545 230.109 13.9901)
(-21.2736 271.297 -1.30808)
(-21.2736 271.297 13.9901)
(-43.1263 269.716 -1.30808)
(-43.1263 269.716 13.9901)
(-40.1914 -279.59 -1.30808)
(-104.621 -283.943 -1.30808)
(-104.621 -283.943 13.4756)
(-40.1914 -279.59 13.4756)
(-101.163 -332.322 -1.30808)
(-101.163 -332.322 13.4756)
(-35.9598 -327.969 -1.30808)
(-35.9598 -327.969 13.4756)
(97.3348 -15.9192 -1.30808)
(78.6991 -17.0879 -1.30808)
(78.6991 -17.0879 16.0975)
(97.3348 -15.9192 16.0975)
(82.7092 -69.8756 -1.30808)
(82.7092 -69.8756 16.0975)
(101.857 -68.9519 -1.30808)
(101.857 -68.9519 16.0975)
(-36.6433 -341.617 -1.30808)
(-74.1248 -345.535 -1.30808)
(-74.1248 -345.535 13.4708)
(-36.6433 -341.617 13.4708)
(-68.2547 -401.696 -1.30808)
(-68.2547 -401.696 13.4708)
(-30.7733 -397.778 -1.30808)
(-30.7733 -397.778 13.4708)
(-117.438 -84.4469 -1.30808)
(-114.151 -119.668 -1.30808)
(-114.151 -119.668 15)
(-117.438 -84.4469 15)
(-106.33 -118.934 -1.30808)
(-106.33 -118.934 15)
(-109.607 -83.7122 -1.30808)
(-109.607 -83.7122 15)
(-142.234 -122.863 -1.30808)
(-145.512 -87.6976 -1.30808)
(-145.512 -87.6976 15)
(-142.234 -122.863 15)
(-154.739 -88.5549 -1.30808)
(-154.739 -88.5549 15)
(-151.462 -123.721 -1.30808)
(-151.462 -123.721 15)
(-131.834 253.218 -1.30808)
(-131.049 234.238 -1.30808)
(-131.049 234.238 15.5087)
(-131.834 253.218 15.5087)
(-87.9071 235.964 -1.30808)
(-87.9071 235.964 15.5087)
(-82.6299 246.317 -1.30808)
(-82.6299 246.317 15.5087)
(-82.831 256.258 -1.30808)
(-82.831 256.258 15.5087)
(104.716 303.156 -1.30808)
(94.0413 307.074 -1.30808)
(94.0413 307.074 13)
(104.716 303.156 13)
(71.2733 246.595 -1.30808)
(71.2733 246.595 13)
(82.1895 242.899 -1.30808)
(82.1895 242.899 13)
(82.0285 224.654 -1.30808)
(82.0285 224.654 13)
(89.4165 217.774 -1.30808)
(89.4165 217.774 13)
(101.157 213.154 -1.30808)
(101.157 213.154 13)
(125.704 272.209 -1.30808)
(125.704 272.209 13)
(104.354 280.747 -1.30808)
(104.354 280.747 13)
(17.906 -223.14 -1.30808)
(20.8511 -217.262 -1.30808)
(20.8511 -217.262 5.12335)
(17.906 -223.14 5.12335)
(17.6347 -212.086 -1.30808)
(17.6347 -212.086 5.12335)
(11.6742 -212.197 -1.30808)
(11.6742 -212.197 5.12335)
(8.62857 -217.329 -1.30808)
(8.62857 -217.329 5.12335)
(11.5234 -222.65 -1.30808)
(11.5234 -222.65 5.12335)
(-65.4315 363.425 -1.30808)
(-77.152 360.186 -1.30808)
(-77.152 360.186 5)
(-65.4315 363.425 5)
(-81.6049 350.612 -1.30808)
(-81.6049 350.612 5)
(-93.3355 348.185 -1.30808)
(-93.3355 348.185 5)
(-86.3192 315.424 -1.30808)
(-86.3192 315.424 5)
(-74.076 317.751 -1.30808)
(-74.076 317.751 5)
(-65.9641 310.036 -1.30808)
(-65.9641 310.036 5)
(-54.505 313.142 -1.30808)
(-54.505 313.142 5)
(-120.666 316.648 -1.30808)
(-114.474 285.724 -1.30808)
(-114.474 285.724 16.5574)
(-120.666 316.648 16.5574)
(-91.8677 290.243 -1.30808)
(-91.8677 290.243 16.5574)
(-98.0598 321.168 -1.30808)
(-98.0598 321.168 16.5574)
(-84.0574 297.023 -1.30808)
(-81.7656 288.295 -1.30808)
(-81.7656 288.295 12.7513)
(-84.0574 297.023 12.7513)
(-41.3371 298.926 -1.30808)
(-41.3371 298.926 12.7513)
(-43.6289 307.654 -1.30808)
(-43.6289 307.654 12.7513)
(-131.904 281.727 -1.30808)
(-138.227 312.663 -1.30808)
(-138.227 312.663 16.237)
(-131.904 281.727 16.237)
(-156.079 309.012 -1.30808)
(-156.079 309.012 16.237)
(-149.756 278.087 -1.30808)
(-149.756 278.087 16.237)
(96.5544 319.486 -1.30808)
(80.9941 326.411 -1.30808)
(80.9941 326.411 8.17694)
(96.5544 319.486 8.17694)
(77.7574 319.13 -1.30808)
(77.7574 319.13 8.17694)
(93.3176 312.206 -1.30808)
(93.3176 312.206 8.17694)
(41.812 333.647 -1.30808)
(46.3956 321.513 -1.30808)
(46.3956 321.513 16.8056)
(41.812 333.647 16.8056)
(76.31 332.812 -1.30808)
(76.31 332.812 16.8056)
(71.7265 344.945 -1.30808)
(71.7265 344.945 16.8056)
(-141.48 -262.068 -1.30808)
(-140.746 -277.776 -1.30808)
(-140.746 -277.776 6.90908)
(-141.48 -262.068 6.90908)
(-130.091 -276.863 -1.30808)
(-130.091 -276.863 6.90908)
(-131.7 -260.855 -1.30808)
(-131.7 -260.855 6.90908)
(65.3038 401.696 -1.30808)
(36.8065 392.39 -1.30808)
(36.8065 392.39 17.0904)
(65.3038 401.696 17.0904)
(48.3359 357.803 -1.30808)
(48.3359 357.803 17.0904)
(77.6975 364.404 -1.30808)
(77.6975 364.404 17.0904)
(84.7841 368.512 -1.30808)
(84.7841 368.512 17.0904)
(-200.457 251.737 -1.30808)
(-197.974 222.794 -1.30808)
(-197.974 222.794 4.43506)
(-200.457 251.737 4.43506)
(-188.435 223.618 -1.30808)
(-188.435 223.618 4.43506)
(-190.928 252.55 -1.30808)
(-190.928 252.55 4.43506)
(-187.008 230.653 -1.30808)
(-187.008 230.653 7.8771)
(-185.57 228.906 -1.30808)
(-185.57 228.906 7.8771)
(-185.108 223.696 -1.30808)
(-185.108 223.696 7.8771)
(-143.885 227.292 -1.30808)
(-143.885 227.292 7.8771)
(-146.69 259.463 -1.30808)
(-146.69 259.463 7.8771)
(-189.199 255.756 -1.30808)
(-189.199 255.756 7.8771)
(-64.4859 -76.9104 -1.30808)
(-64.4859 -76.9104 15.6486)
(-36.1606 -86.829 -1.30808)
(-36.1606 -86.829 15.6486)
(-12.9918 -84.8141 -1.30808)
(-12.9918 -84.8141 15.6486)
(111.205 -144.226 -1.30808)
(111.205 -144.226 13.4781)
(107.516 -99.4646 -1.30808)
(107.516 -99.4646 13.4781)
(-68.3459 24.702 -1.30808)
(-68.3459 24.702 15)
(-58.9677 25.4256 -1.30808)
(-58.9677 25.4256 15)
(-63.7223 96.6589 -1.30808)
(-63.7223 96.6589 15)
(-74.5379 95.824 -1.30808)
(-74.5379 95.824 15)
(139.021 121.927 -1.30808)
(139.021 121.927 7)
(136.186 115.627 -1.30808)
(136.186 115.627 7)
(130.88 191.958 -1.30808)
(130.88 191.958 15)
(137.725 189.465 -1.30808)
(137.725 189.465 15)
(142.038 221.502 -1.30808)
(142.038 221.502 15)
(-160.449 46.5536 -1.30808)
(-160.449 46.5536 15)
(-150.82 47.2883 -1.30808)
(-150.82 47.2883 15)
(-152.73 72.0235 -1.30808)
(-152.73 72.0235 15)
(-164.45 71.1329 -1.30808)
(-164.45 71.1329 15)
(-50.9969 222.773 -1.30808)
(-50.9969 222.773 13.9901)
(-39.9399 223.574 -1.30808)
(-39.9399 223.574 13.9901)
(-14.9009 212.131 -1.30808)
(-14.9009 212.131 13.9901)
(-18.1878 228.84 -1.30808)
(-18.1878 228.84 13.9901)
(-40.5129 233.682 -1.30808)
(-40.5129 233.682 13.9901)
(-52.7962 232.792 -1.30808)
(-52.7962 232.792 13.9901)
(-88.1685 246.094 -1.30808)
(-88.1685 246.094 15.5087)
(86.5722 255.845 -1.30808)
(86.5722 255.845 13)
(92.6133 253.352 -1.30808)
(92.6133 253.352 13)
(90.8339 220.98 -1.30808)
(90.8339 220.98 13)
(97.951 266.509 -1.30808)
(97.951 266.509 13)
(92.6135 269.359 -1.30808)
(92.6135 269.359 13)
(-73.2618 342.786 -1.30808)
(-73.2618 342.786 5)
(-79.5141 341.473 -1.30808)
(-79.5141 341.473 5)
(-76.398 327.858 -1.30808)
(-76.398 327.858 5)
(-70.2362 329.294 -1.30808)
(-70.2362 329.294 5)
(75.8379 367.009 -1.30808)
(75.8379 367.009 17.0904)
(-179.409 231.31 -1.30808)
(-179.409 231.31 7.8771)
(-179.248 229.462 -1.30808)
(-179.248 229.462 7.8771)
(-115.276 -242.487 -1.30808)
(-109.054 -240.884 -1.30808)
(-109.054 -240.884 16.2211)
(-115.276 -242.487 16.2211)
(-103.757 -237.244 -1.30808)
(-103.757 -237.244 16.2211)
(-100.319 -232.591 -1.30808)
(-100.319 -232.591 16.2211)
(-98.4798 -227.103 -1.30808)
(-98.4798 -227.103 16.2211)
(-98.4295 -221.325 -1.30808)
(-98.4295 -221.325 16.2211)
(-100.168 -215.804 -1.30808)
(-100.168 -215.804 16.2211)
(-103.526 -211.084 -1.30808)
(-103.526 -211.084 16.2211)
(-108.179 -207.644 -1.30808)
(-108.179 -207.644 16.2211)
(-113.668 -205.807 -1.30808)
(-113.668 -205.807 16.2211)
(-119.447 -205.752 -1.30808)
(-119.447 -205.752 16.2211)
(-124.975 -207.5 -1.30808)
(-124.975 -207.5 16.2211)
(-129.68 -210.85 -1.30808)
(-129.68 -210.85 16.2211)
(-133.419 -216.082 -1.30808)
(-133.419 -216.082 16.2211)
(-135.127 -222.272 -1.30808)
(-135.127 -222.272 16.2211)
(-134.625 -228.673 -1.30808)
(-134.625 -228.673 16.2211)
(-131.971 -234.517 -1.30808)
(-131.971 -234.517 16.2211)
(-127.468 -239.103 -1.30808)
(-127.468 -239.103 16.2211)
(-121.668 -241.875 -1.30808)
(-121.668 -241.875 16.2211)
)

// edges

686
(
(357 1)
(0 357)
(2 0)
(1 2)
(3 4)
(357 3)
(4 1)
(5 6)
(3 5)
(6 4)
(5 0)
(2 6)
(8 9)
(7 8)
(10 7)
(9 10)
(11 12)
(8 11)
(12 9)
(11 357)
(358 12)
(13 14)
(357 13)
(14 358)
(15 16)
(13 15)
(16 14)
(15 359)
(360 16)
(359 361)
(362 360)
(17 18)
(361 17)
(18 362)
(19 20)
(17 19)
(20 18)
(19 7)
(10 20)
(22 23)
(21 22)
(24 21)
(23 24)
(25 26)
(22 25)
(26 23)
(25 363)
(364 26)
(27 28)
(363 27)
(28 364)
(29 30)
(27 29)
(30 28)
(29 365)
(366 30)
(31 32)
(365 31)
(32 366)
(31 21)
(24 32)
(34 35)
(33 34)
(36 33)
(35 36)
(37 38)
(34 37)
(38 35)
(39 40)
(37 39)
(40 38)
(39 33)
(36 40)
(42 43)
(41 42)
(44 41)
(43 44)
(45 46)
(42 45)
(46 43)
(47 48)
(45 47)
(48 46)
(47 367)
(368 48)
(367 369)
(370 368)
(49 50)
(369 49)
(50 370)
(51 52)
(49 51)
(52 50)
(53 54)
(51 53)
(54 52)
(55 56)
(53 55)
(56 54)
(55 371)
(372 56)
(371 373)
(374 372)
(373 41)
(44 374)
(58 59)
(57 58)
(60 57)
(59 60)
(61 62)
(58 61)
(62 59)
(63 64)
(61 63)
(64 62)
(63 57)
(60 64)
(66 67)
(65 66)
(68 65)
(67 68)
(69 70)
(66 69)
(70 67)
(71 72)
(69 71)
(72 70)
(71 375)
(376 72)
(73 74)
(375 73)
(74 376)
(75 76)
(73 75)
(76 74)
(75 377)
(378 76)
(377 65)
(68 378)
(77 379)
(78 77)
(380 78)
(379 381)
(382 380)
(79 80)
(381 79)
(80 382)
(81 82)
(79 81)
(82 80)
(83 84)
(81 83)
(84 82)
(83 383)
(384 84)
(85 86)
(383 85)
(86 384)
(87 88)
(85 87)
(88 86)
(89 90)
(87 89)
(90 88)
(89 77)
(78 90)
(92 93)
(91 92)
(94 91)
(93 94)
(95 96)
(92 95)
(96 93)
(97 98)
(95 97)
(98 96)
(97 91)
(94 98)
(100 101)
(99 100)
(102 99)
(101 102)
(103 104)
(100 103)
(104 101)
(105 106)
(103 105)
(106 104)
(105 99)
(102 106)
(108 109)
(107 108)
(110 107)
(109 110)
(111 112)
(108 111)
(112 109)
(113 114)
(111 113)
(114 112)
(113 107)
(110 114)
(116 117)
(115 116)
(118 115)
(117 118)
(119 120)
(116 119)
(120 117)
(121 122)
(119 121)
(122 120)
(121 115)
(118 122)
(124 125)
(123 124)
(126 123)
(125 126)
(124 127)
(128 125)
(127 128)
(126 129)
(130 123)
(129 130)
(128 129)
(130 127)
(132 133)
(131 132)
(134 131)
(133 134)
(135 136)
(132 135)
(136 133)
(137 138)
(135 137)
(138 136)
(137 131)
(134 138)
(140 141)
(139 140)
(142 139)
(141 142)
(143 144)
(140 143)
(144 141)
(145 146)
(143 145)
(146 144)
(145 139)
(142 146)
(148 149)
(147 148)
(150 147)
(149 150)
(151 152)
(148 151)
(152 149)
(153 154)
(151 153)
(154 152)
(153 385)
(386 154)
(385 387)
(388 386)
(155 156)
(387 155)
(156 388)
(157 158)
(155 157)
(158 156)
(159 160)
(157 159)
(160 158)
(161 162)
(159 161)
(162 160)
(161 389)
(390 162)
(389 391)
(392 390)
(391 147)
(150 392)
(164 165)
(163 164)
(166 163)
(165 166)
(167 168)
(164 167)
(168 165)
(169 170)
(167 169)
(170 168)
(169 393)
(394 170)
(393 395)
(396 394)
(171 172)
(395 171)
(172 396)
(173 174)
(171 173)
(174 172)
(173 397)
(398 174)
(175 176)
(397 175)
(176 398)
(177 178)
(175 177)
(178 176)
(177 399)
(400 178)
(179 180)
(399 179)
(180 400)
(181 182)
(179 181)
(182 180)
(181 401)
(402 182)
(401 403)
(404 402)
(403 163)
(166 404)
(184 185)
(183 184)
(186 183)
(185 186)
(187 188)
(184 187)
(188 185)
(189 190)
(187 189)
(190 188)
(189 183)
(186 190)
(192 193)
(191 192)
(194 191)
(193 194)
(195 196)
(192 195)
(196 193)
(197 198)
(195 197)
(198 196)
(197 191)
(194 198)
(200 201)
(199 200)
(202 199)
(201 202)
(203 204)
(200 203)
(204 201)
(205 206)
(203 205)
(206 204)
(205 199)
(202 206)
(431 432)
(433 434)
(432 435)
(436 433)
(435 437)
(438 436)
(437 439)
(440 438)
(439 441)
(442 440)
(441 443)
(444 442)
(443 445)
(446 444)
(445 447)
(448 446)
(447 449)
(450 448)
(449 451)
(452 450)
(451 453)
(454 452)
(453 455)
(456 454)
(455 457)
(458 456)
(457 459)
(460 458)
(459 461)
(462 460)
(461 463)
(464 462)
(463 465)
(466 464)
(465 467)
(468 466)
(467 431)
(434 468)
(208 209)
(207 208)
(210 207)
(209 210)
(211 212)
(208 211)
(212 209)
(213 214)
(211 213)
(214 212)
(213 207)
(210 214)
(216 217)
(215 216)
(218 215)
(217 218)
(219 220)
(216 219)
(220 217)
(221 222)
(219 221)
(222 220)
(221 215)
(218 222)
(224 225)
(223 224)
(226 223)
(225 226)
(227 228)
(224 227)
(228 225)
(227 405)
(406 228)
(229 230)
(405 229)
(230 406)
(231 232)
(229 231)
(232 230)
(231 223)
(226 232)
(234 235)
(233 234)
(236 233)
(235 236)
(237 238)
(234 237)
(238 235)
(239 240)
(237 239)
(240 238)
(239 407)
(408 240)
(407 409)
(410 408)
(241 242)
(409 241)
(242 410)
(241 411)
(412 242)
(243 244)
(411 243)
(244 412)
(245 246)
(243 245)
(246 244)
(247 248)
(245 247)
(248 246)
(249 250)
(247 249)
(250 248)
(249 413)
(414 250)
(413 415)
(416 414)
(415 233)
(236 416)
(252 253)
(251 252)
(254 251)
(253 254)
(255 256)
(252 255)
(256 253)
(257 258)
(255 257)
(258 256)
(259 260)
(257 259)
(260 258)
(261 262)
(259 261)
(262 260)
(261 251)
(254 262)
(264 265)
(263 264)
(266 263)
(265 266)
(264 417)
(418 265)
(417 419)
(420 418)
(267 268)
(419 267)
(268 420)
(269 270)
(267 269)
(270 268)
(271 272)
(269 271)
(272 270)
(273 274)
(271 273)
(274 272)
(273 421)
(422 274)
(421 423)
(424 422)
(275 276)
(423 275)
(276 424)
(277 278)
(275 277)
(278 276)
(277 263)
(266 278)
(280 281)
(279 280)
(282 279)
(281 282)
(283 284)
(280 283)
(284 281)
(285 286)
(283 285)
(286 284)
(285 279)
(282 286)
(288 289)
(287 288)
(290 287)
(289 290)
(291 292)
(288 291)
(292 289)
(293 294)
(291 293)
(294 292)
(293 287)
(290 294)
(296 297)
(295 296)
(298 295)
(297 298)
(299 300)
(296 299)
(300 297)
(301 302)
(299 301)
(302 300)
(301 295)
(298 302)
(304 305)
(303 304)
(306 303)
(305 306)
(307 308)
(304 307)
(308 305)
(309 310)
(307 309)
(310 308)
(309 303)
(306 310)
(312 313)
(311 312)
(314 311)
(313 314)
(315 316)
(312 315)
(316 313)
(317 318)
(315 317)
(318 316)
(317 311)
(314 318)
(320 321)
(319 320)
(322 319)
(321 322)
(323 324)
(320 323)
(324 321)
(325 326)
(323 325)
(326 324)
(325 319)
(322 326)
(328 329)
(327 328)
(330 327)
(329 330)
(331 332)
(328 331)
(332 329)
(331 425)
(426 332)
(333 334)
(425 333)
(334 426)
(335 336)
(333 335)
(336 334)
(335 327)
(330 336)
(338 339)
(337 338)
(340 337)
(339 340)
(341 342)
(338 341)
(342 339)
(343 344)
(341 343)
(344 342)
(343 337)
(340 344)
(345 427)
(346 345)
(428 346)
(427 429)
(430 428)
(347 348)
(429 347)
(348 430)
(349 350)
(347 349)
(350 348)
(351 352)
(349 351)
(352 350)
(353 354)
(351 353)
(354 352)
(355 356)
(353 355)
(356 354)
(355 345)
(346 356)
(357 358)
(359 360)
(361 362)
(363 364)
(365 366)
(367 368)
(369 370)
(371 372)
(373 374)
(375 376)
(377 378)
(379 380)
(381 382)
(383 384)
(385 386)
(387 388)
(389 390)
(391 392)
(393 394)
(395 396)
(397 398)
(399 400)
(401 402)
(403 404)
(405 406)
(407 408)
(409 410)
(411 412)
(413 414)
(415 416)
(417 418)
(419 420)
(421 422)
(423 424)
(425 426)
(427 428)
(429 430)
)

// concaveStart mixedStart nonFeatureStart
357 357 431
// internalStart flatStart openStart multipleStart
649 686 686 686
// normals

742
(
(0.996225 0.0868066 0)
(-0.0869136 0.996216 0)
(0 0 -1)
(0.996225 0.0868066 -0)
(0.0869515 -0.996213 0)
(0 0 1)
(-0.0869136 0.996216 0)
(-0.996186 -0.0872546 0)
(0 0 1)
(-0.996186 -0.0872546 0)
(0.0869515 -0.996213 0)
(-0 0 -1)
(-0.0869221 0.996215 0)
(-0.996225 -0.0868107 0)
(0 0 -1)
(-0.0869221 0.996215 0)
(0.99621 0.0869851 0)
(0 0 1)
(-0.996225 -0.0868107 0)
(0.0870545 -0.996204 0)
(-0 0 -1)
(0.0870545 -0.996204 0)
(0 0 1)
(-0.996207 -0.0870114 0)
(0.0866868 -0.996236 0)
(-0 0 -1)
(-0.996207 -0.0870114 0)
(0 0 1)
(0.0866868 -0.996236 0)
(0.996217 0.086903 -0)
(0 -0 -1)
(0.996217 0.086903 0)
(0 0 1)
(0.0866369 -0.99624 0)
(0 0 -1)
(0.0866369 -0.99624 0)
(0 0 1)
(-0.996147 -0.0876952 0)
(0.0869397 -0.996214 0)
(-0 0 -1)
(-0.996147 -0.0876952 0)
(-0 0 1)
(0.0869397 -0.996214 0)
(0.99621 0.0869851 -0)
(0 0 1)
(-0.997588 -0.069409 0)
(0.0419702 -0.999119 0)
(0 0 -1)
(-0.997588 -0.069409 0)
(-0.0688771 0.997625 0)
(0 0 1)
(0.0419702 -0.999119 0)
(0.996996 0.0774526 -0)
(0 -0 -1)
(0.996996 0.0774526 0)
(0 0 1)
(0.0527447 -0.998608 0)
(0.995065 0.0992236 -0)
(0 0 -1)
(0.0527447 -0.998608 0)
(0 0 1)
(0.995065 0.0992236 0)
(-0.0555396 0.998456 0)
(0 0 -1)
(-0.0555396 0.998456 0)
(0 -0 1)
(0.996126 0.0879398 0)
(-0.0688771 0.997625 0)
(0 0 -1)
(0.996126 0.0879398 -0)
(0 0 1)
(-0.113859 0.993497 0)
(-0.993449 -0.114275 0)
(0 0 -1)
(-0.113859 0.993497 0)
(0.993401 0.114697 0)
(-0 0 1)
(-0.993449 -0.114275 0)
(0.114521 -0.993421 0)
(0 0 1)
(0.114521 -0.993421 0)
(0.993401 0.114697 -0)
(0 -0 -1)
(-0.0766137 0.997061 0)
(-0.997066 -0.0765506 0)
(0 0 -1)
(-0.0766137 0.997061 0)
(0.997089 0.0762446 0)
(0 0 1)
(-0.997066 -0.0765506 0)
(0.0766157 -0.997061 0)
(0 0 -1)
(0.0766157 -0.997061 0)
(0.997061 0.0766155 -0)
(0 -0 -1)
(0 0 1)
(0.997061 0.0766155 0)
(0.0769278 -0.997037 0)
(0 -0 -1)
(0.0769278 -0.997037 0)
(0 0 1)
(-0.997069 -0.0765011 0)
(0.0767586 -0.99705 0)
(-0 0 -1)
(-0.997069 -0.0765011 0)
(0 0 1)
(0.0767586 -0.99705 0)
(0.997067 0.0765278 -0)
(0.997067 0.0765278 0)
(-0.0767306 0.997052 0)
(0 0 -1)
(-0 0 1)
(-0.0767306 0.997052 0)
(-0.997084 -0.0763103 0)
(0 0 -1)
(0 0 1)
(-0.997084 -0.0763103 0)
(-0.0769663 0.997034 0)
(0 0 -1)
(-0.0769663 0.997034 0)
(0 0 1)
(0.997089 0.0762446 -0)
(0 0 1)
(-0.583453 0.812147 0)
(-0.998261 -0.0589438 0)
(0 0 -1)
(-0.583453 0.812147 0)
(0.99163 0.129109 0)
(-0 0 1)
(-0.998261 -0.0589438 0)
(0.121667 -0.992571 0)
(0 0 1)
(0.121667 -0.992571 0)
(0.99163 0.129109 -0)
(0 -0 -1)
(-0.372149 -0.928173 0)
(0.928253 -0.371949 0)
(0 0 -1)
(-0.372149 -0.928173 0)
(-0.928153 0.372199 0)
(-0 0 1)
(0.928253 -0.371949 0)
(0.372021 0.928224 -0)
(0 0 -1)
(0.372021 0.928224 0)
(-0.928229 0.372009 0)
(0 0 -1)
(0 0 1)
(-0.928229 0.372009 0)
(0.371616 0.928386 0)
(-0.927827 0.373011 0)
(0 0 -1)
(0.371616 0.928386 -0)
(0 0 1)
(-0.927827 0.373011 0)
(-0.372214 -0.928147 0)
(0 0 -1)
(-0.372214 -0.928147 0)
(0 0 1)
(-0.928153 0.372199 0)
(-0 0 1)
(0.918824 -0.394667 0)
(0 0 -1)
(0.918824 -0.394667 0)
(-0.382963 -0.923763 0)
(0 0 1)
(-0.342287 -0.939596 0)
(0 0 -1)
(-0.342287 -0.939596 0)
(0 0 1)
(-0.952223 0.305404 0)
(-0.341336 -0.939941 0)
(0 0 -1)
(-0.952223 0.305404 0)
(0 0 1)
(-0.341336 -0.939941 0)
(0.940077 -0.340964 0)
(0.940077 -0.340964 0)
(0.337313 0.941393 -0)
(0 0 -1)
(0 -0 1)
(0.337313 0.941393 0)
(0.940107 -0.34088 0)
(0.366339 0.930481 -0)
(0 0 -1)
(0.940107 -0.34088 0)
(0 -0 1)
(0.366339 0.930481 0)
(-0.924236 0.381823 0)
(0 0 -1)
(-0.924236 0.381823 0)
(-0.382963 -0.923763 0)
(0 0 1)
(-0.0602394 0.998184 0)
(-0.997674 -0.0681649 0)
(0 0 -1)
(-0.0602394 0.998184 0)
(0.998194 0.060078 0)
(-0 0 1)
(-0.997674 -0.0681649 0)
(0.060311 -0.99818 0)
(0 0 1)
(0.060311 -0.99818 0)
(0.998194 0.060078 -0)
(0 -0 -1)
(0.350868 0.936425 0)
(-0.936612 0.350368 0)
(-0 0 -1)
(0.350868 0.936425 -0)
(0.936665 -0.350227 0)
(0 0 1)
(-0.936612 0.350368 0)
(-0.35026 -0.936653 0)
(0 0 1)
(-0.35026 -0.936653 0)
(0.936665 -0.350227 0)
(0 0 -1)
(-0.0760383 0.997105 0)
(-0.997108 -0.0760004 0)
(0 0 -1)
(-0.0760383 0.997105 0)
(0.997108 0.0759992 0)
(-0 0 1)
(-0.997108 -0.0760004 0)
(0.0760382 -0.997105 0)
(0 0 1)
(0.0760382 -0.997105 0)
(0.997108 0.0759992 -0)
(0 -0 -1)
(-0.093069 0.99566 0)
(-0.997952 -0.0639708 0)
(0 0 -1)
(-0.093069 0.99566 0)
(0.950222 -0.311575 0)
(-0 0 1)
(-0.997952 -0.0639708 0)
(-0.0272209 -0.999629 0)
(0 0 1)
(-0.0272209 -0.999629 0)
(0.950222 -0.311575 0)
(0 0 -1)
(0 0 1)
(0.107367 -0.994219 0)
(-0.994278 -0.10682 0)
(-0 0 1)
(-0.10745 0.99421 0)
(0.994204 0.107508 0)
(-0.994278 -0.10682 -0)
(0.107367 -0.994219 0)
(0 0 -1)
(0.994204 0.107508 0)
(-0.10745 0.99421 0)
(0 0 -1)
(-0.0755753 0.99714 0)
(-0.997139 -0.0755894 0)
(0 0 -1)
(-0.0755753 0.99714 0)
(0.997145 0.0755065 0)
(-0 0 1)
(-0.997139 -0.0755894 0)
(0.0755883 -0.997139 0)
(0 0 1)
(0.0755883 -0.997139 0)
(0.997145 0.0755065 -0)
(0 -0 -1)
(0.36516 0.930945 0)
(-0.930912 0.365244 0)
(-0 0 -1)
(0.36516 0.930945 -0)
(0.93106 -0.364866 0)
(0 0 1)
(-0.930912 0.365244 0)
(-0.365293 -0.930893 0)
(0 0 1)
(-0.365293 -0.930893 0)
(0.93106 -0.364866 0)
(0 0 -1)
(-0.0761294 0.997098 0)
(-0.997065 -0.0765576 0)
(0 0 -1)
(-0.0761294 0.997098 0)
(0.997062 0.0765972 0)
(0 0 1)
(-0.997065 -0.0765576 0)
(0.0764091 -0.997077 0)
(0 0 -1)
(0.0764091 -0.997077 0)
(0.997069 0.0765125 -0)
(0 -0 -1)
(0 0 1)
(0.997069 0.0765125 0)
(0.0760848 -0.997101 0)
(0 -0 -1)
(0.0760848 -0.997101 0)
(0 0 1)
(-0.997064 -0.0765756 0)
(0.0767706 -0.997049 0)
(-0 0 -1)
(-0.997064 -0.0765756 0)
(0 0 1)
(0.0767706 -0.997049 0)
(0.997067 0.0765282 -0)
(0.997067 0.0765282 0)
(-0.0767022 0.997054 0)
(0 0 -1)
(-0 0 1)
(-0.0767022 0.997054 0)
(-0.997052 -0.0767242 0)
(0 0 -1)
(0 0 1)
(-0.997052 -0.0767242 0)
(-0.0757744 0.997125 0)
(0 0 -1)
(-0.0757744 0.997125 0)
(0 0 1)
(0.997062 0.0765972 -0)
(0 0 1)
(-0.0725143 0.997367 0)
(-0.997371 -0.0724622 0)
(0 0 -1)
(-0.0725143 0.997367 0)
(0.99737 0.0724821 0)
(0 0 1)
(-0.997371 -0.0724622 0)
(0.0725387 -0.997366 0)
(0 0 -1)
(0.0725387 -0.997366 0)
(0.997373 0.0724319 -0)
(-0 0 -1)
(0 0 1)
(0.997373 0.0724319 0)
(-0 -0 -1)
(0.0722997 -0.997383 0)
(-0 0 -1)
(0.0722997 -0.997383 0)
(0 0 1)
(-0.99739 -0.0721992 0)
(0.0723456 -0.99738 0)
(-0 0 -1)
(-0.99739 -0.0721992 0)
(0 0 1)
(0.0723456 -0.99738 0)
(0.997357 0.0726629 -0)
(0 -0 -1)
(0.997357 0.0726629 0)
(0 0 1)
(0.0718182 -0.997418 0)
(0.997367 0.0725198 -0)
(0 0 -1)
(0.0718182 -0.997418 0)
(0 0 1)
(0.997367 0.0725198 0)
(-0.0722401 0.997387 0)
(0 0 -1)
(-0.0722401 0.997387 0)
(0 -0 1)
(0.997369 0.0724895 0)
(-0.0721482 0.997394 0)
(0 0 -1)
(0.997369 0.0724895 -0)
(0 0 1)
(-0.0721482 0.997394 0)
(-0.99738 -0.0723373 0)
(0 0 -1)
(-0.99738 -0.0723373 0)
(0 0 1)
(-0.0723073 0.997382 0)
(0 0 -1)
(-0.0723073 0.997382 0)
(0 0 1)
(0.99737 0.0724821 -0)
(0 0 1)
(-0.0674042 0.997726 0)
(-0.997455 -0.0712924 0)
(0 0 -1)
(-0.0674042 0.997726 0)
(0.996197 0.0871345 0)
(-0 0 1)
(-0.997455 -0.0712924 0)
(0.066608 -0.997779 0)
(0 0 1)
(0.066608 -0.997779 0)
(0.996197 0.0871345 -0)
(0 -0 -1)
(-0.062588 0.998039 0)
(-0.997127 -0.075748 0)
(0 0 -1)
(-0.062588 0.998039 0)
(0.996383 0.0849719 0)
(-0 0 1)
(-0.997127 -0.075748 0)
(0.0481864 -0.998838 0)
(0 0 1)
(0.0481864 -0.998838 0)
(0.996383 0.0849719 -0)
(0 -0 -1)
(-0.103977 0.99458 0)
(-0.994582 -0.103957 0)
(0 0 -1)
(-0.103977 0.99458 0)
(0.994582 0.103954 0)
(-0 0 1)
(-0.994582 -0.103957 0)
(0.103977 -0.99458 0)
(0 0 1)
(0.103977 -0.99458 0)
(0.994582 0.103954 -0)
(0 -0 -1)
(0.249498 -0.968375 0)
(0 0 -1)
(0.249498 -0.968375 0)
(0 0 1)
(0.566361 -0.824157 0)
(0 0 -1)
(0.566361 -0.824157 0)
(0.804318 -0.594199 0)
(0 0 -1)
(0.804318 -0.594199 0)
(0 0 1)
(0.948162 -0.317787 0)
(0.948162 -0.317787 0)
(0.999962 -0.00869543 0)
(0 0 -1)
(0.999962 -0.00869543 0)
(0 -0 1)
(0.953815 0.300396 0)
(0.953815 0.300396 -0)
(0.81489 0.579616 0)
(0 0 -1)
(0.81489 0.579616 -0)
(0 0 1)
(0.594385 0.80418 0)
(0.594385 0.80418 -0)
(0.317374 0.9483 0)
(0 0 -1)
(0.317374 0.9483 -0)
(0 0 1)
(0.00962541 0.999954 0)
(0.00962541 0.999954 -0)
(-0.301442 0.953485 0)
(0 0 -1)
(-0.301442 0.953485 0)
(0 0 1)
(-0.580172 0.814494 0)
(-0.580172 0.814494 0)
(-0.81359 0.581438 0)
(0 0 -1)
(-0.81359 0.581438 0)
(0 0 1)
(-0.963941 0.266116 0)
(-0.963941 0.266116 0)
(-0.996931 -0.0782835 0)
(0 0 -1)
(-0.996931 -0.0782835 0)
(0 0 1)
(-0.910534 -0.413434 0)
(-0.910534 -0.413434 0)
(-0.713555 -0.7006 0)
(0 0 -1)
(-0.713555 -0.7006 0)
(0 0 1)
(-0.431209 -0.902252 0)
(-0.431209 -0.902252 0)
(-0.095331 -0.995446 0)
(-0.095331 -0.995446 0)
(-0 0 1)
(-0.995673 -0.0929212 0)
(0.0935447 -0.995615 0)
(0 0 -1)
(-0.995673 -0.0929212 0)
(-0.0934263 0.995626 0)
(0 -0 1)
(0.0935447 -0.995615 0)
(0.9957 0.0926387 -0)
(0 0 1)
(0.9957 0.0926387 0)
(-0.0934263 0.995626 0)
(0 0 -1)
(0.995686 0.0927871 0)
(-0.0925039 0.995712 0)
(0 0 -1)
(0.995686 0.0927871 -0)
(0.0925033 -0.995712 0)
(0 0 1)
(-0.0925039 0.995712 0)
(-0.995686 -0.0927879 0)
(0 0 1)
(-0.995686 -0.0927879 0)
(0.0925033 -0.995712 0)
(-0 0 -1)
(-0.999148 -0.0412809 0)
(0.039967 -0.999201 0)
(0 0 -1)
(-0.999148 -0.0412809 0)
(-0.0619032 0.998082 0)
(0 0 1)
(0.039967 -0.999201 0)
(0.999667 0.0257934 -0)
(0 -0 -1)
(0.999667 0.0257934 0)
(0 0 1)
(0.0401688 -0.999193 0)
(0.999796 0.020222 -0)
(0 -0 -1)
(0.0401688 -0.999193 0)
(0 0 1)
(0.999796 0.020222 0)
(-0.0619032 0.998082 0)
(0 -0 1)
(0.344596 0.938751 0)
(-0.93588 0.352318 0)
(0 -0 -1)
(0.344596 0.938751 -0)
(0.941454 -0.337142 0)
(0 0 1)
(-0.93588 0.352318 0)
(-0.32069 -0.947184 0)
(0 0 -1)
(-0.32069 -0.947184 0)
(0.947197 -0.320653 0)
(0 0 -1)
(-0 0 1)
(0.947197 -0.320653 0)
(-0.381545 -0.92435 0)
(0 0 -1)
(-0.381545 -0.92435 0)
(0 0 1)
(-0.938217 0.346047 0)
(-0.38504 -0.9229 0)
(0 0 -1)
(-0.938217 0.346047 0)
(0 0 1)
(-0.38504 -0.9229 0)
(-0.914608 0.404341 0)
(-0.366171 -0.930548 0)
(0 0 -1)
(-0.914608 0.404341 0)
(0 0 1)
(-0.366171 -0.930548 0)
(0.923404 -0.38383 0)
(0.923404 -0.38383 0)
(0.371333 0.9285 -0)
(0 0 -1)
(0 -0 1)
(0.371333 0.9285 0)
(-0.912012 0.410163 0)
(0 0 -1)
(0 0 1)
(-0.912012 0.410163 0)
(0.470999 0.882134 0)
(0 0 -1)
(0.470999 0.882134 -0)
(0 0 1)
(0.941454 -0.337142 0)
(0 -0 1)
(0.894045 -0.447978 0)
(0.849381 0.52778 -0)
(0 0 -1)
(0.894045 -0.447978 0)
(-0.0765199 -0.997068 0)
(0 -0 1)
(0.849381 0.52778 0)
(-0.0186692 0.999826 0)
(0 0 -1)
(-0.0186692 0.999826 0)
(-0.859958 0.510365 0)
(0 0 1)
(-0.859958 0.510365 0)
(-0.878424 -0.477882 0)
(0 0 -1)
(-0.878424 -0.477882 0)