/*--------------------------------*- C++ -*----------------------------------*\
  =========                 |
  \\      /  F ield         | OpenFOAM: The Open Source CFD Toolbox
   \\    /   O peration     | Website:  https://openfoam.org
    \\  /    A nd           | Version:  11
     \\/     M anipulation  |
\*---------------------------------------------------------------------------*/
FoamFile
{
    format      ascii;
    class       extendedFeatureEdgeMesh;
    location    "constant/extendedFeatureEdgeMesh";
    object      Inlet.extendedFeatureEdgeMesh;
}
// * * * * * * * * * * * * * * * * * * * * * * * * * * * * * * * * * * * * * //

// points

298
(
(352.668 -71.8 515.735)
(352.669 143.198 515.737)
(319.434 -58.2077 306.967)
(319.529 130.692 307.076)
(319.113 130.69 303.878)
(319.698 -71.8 307.565)
(319.215 -56.8265 304.521)
(319.697 143.2 307.565)
(332.876 -55.5216 319.416)
(332.597 -52.69 317.814)
(333.106 -52.69 321.026)
(333.62 -55.5135 324.021)
(333.143 -58.3203 320.904)
(332.645 -58.3 317.803)
(322.318 -71.8 324.11)
(321.851 -71.8 321.162)
(322.785 -71.8 327.058)
(323.252 -71.8 330.007)
(323.719 -71.8 332.955)
(324.186 -71.8 335.903)
(324.653 -71.8 338.851)
(325.12 -71.8 341.799)
(325.587 -71.8 344.747)
(326.053 -71.8 347.695)
(326.52 -71.8 350.643)
(326.987 -71.8 353.591)
(327.454 -71.8 356.539)
(327.921 -71.8 359.487)
(328.388 -71.8 362.435)
(328.855 -71.8 365.384)
(329.322 -71.8 368.332)
(329.789 -71.8 371.28)
(330.256 -71.8 374.228)
(330.723 -71.8 377.176)
(331.19 -71.8 380.124)
(331.657 -71.8 383.072)
(332.124 -71.8 386.02)
(332.591 -71.8 388.968)
(333.057 -71.8 391.916)
(333.525 -71.8 394.865)
(333.991 -71.8 397.813)
(334.458 -71.8 400.761)
(334.925 -71.8 403.709)
(335.392 -71.8 406.657)
(335.859 -71.8 409.605)
(336.326 -71.8 412.553)
(336.793 -71.8 415.501)
(337.26 -71.8 418.449)
(337.727 -71.8 421.397)
(338.194 -71.8 424.346)
(338.661 -71.8 427.293)
(339.128 -71.8 430.242)
(339.595 -71.8 433.19)
(340.061 -71.8 436.138)
(340.528 -71.8 439.086)
(340.995 -71.8 442.034)
(341.462 -71.8 444.982)
(341.929 -71.8 447.931)
(342.396 -71.8 450.878)
(342.863 -71.8 453.827)
(343.33 -71.8 456.774)
(343.797 -71.8 459.723)
(344.264 -71.8 462.671)
(344.731 -71.8 465.619)
(345.198 -71.8 468.567)
(345.665 -71.8 471.515)
(346.132 -71.8 474.463)
(346.599 -71.8 477.411)
(347.065 -71.8 480.359)
(347.533 -71.8 483.308)
(347.999 -71.8 486.255)
(348.466 -71.8 489.204)
(348.933 -71.8 492.151)
(349.4 -71.8 495.1)
(349.867 -71.8 498.048)
(350.334 -71.8 500.996)
(350.801 -71.8 503.944)
(351.268 -71.8 506.892)
(321.851 143.198 321.162)
(322.318 143.198 324.11)
(351.735 -71.8 509.84)
(322.785 143.198 327.058)
(352.202 -71.8 512.789)
(323.252 143.198 330.007)
(323.719 143.198 332.955)
(352.668 -68.8139 515.735)
(352.668 -65.8278 515.735)
(324.186 143.198 335.903)
(352.668 -62.8417 515.736)
(324.653 143.198 338.851)
(352.668 -59.8555 515.736)
(325.12 143.198 341.799)
(352.668 -56.8694 515.736)
(325.477 139.809 344.053)
(326.302 140.55 349.265)
(325.587 143.198 344.747)
(352.668 -53.8833 515.736)
(326.053 143.198 347.695)
(352.668 -50.8972 515.736)
(326.287 140.562 349.167)
(326.754 140.557 352.118)
(326.521 143.198 350.643)
(352.668 -47.9111 515.736)
(352.668 -44.925 515.736)
(326.987 143.198 353.591)
(352.668 -41.9389 515.736)
(327.454 143.198 356.539)
(352.668 -38.9528 515.736)
(327.921 143.198 359.487)
(352.668 -35.9667 515.736)
(328.388 143.198 362.436)
(352.668 -32.9806 515.736)
(328.855 143.198 365.384)
(352.668 -29.9945 515.736)
(329.322 143.198 368.332)
(352.669 -27.0083 515.736)
(329.789 143.198 371.28)
(352.669 -24.0222 515.736)
(352.669 -21.0361 515.736)
(330.256 143.198 374.228)
(352.669 -18.05 515.736)
(330.681 143.198 376.909)
(352.669 -15.0639 515.736)
(331.19 143.198 380.124)
(352.669 -12.0778 515.736)
(331.657 143.198 383.073)
(352.669 -9.09167 515.736)
(332.082 143.198 385.759)
(352.669 -6.10557 515.736)
(332.591 143.198 388.969)
(352.669 -3.11944 515.736)
(333.058 143.198 391.917)
(352.669 -0.133355 515.736)
(352.669 2.85278 515.736)
(333.525 143.198 394.865)
(352.669 5.83886 515.736)
(333.991 143.198 397.813)
(352.669 8.825 515.736)
(334.458 143.198 400.761)
(352.669 11.8111 515.736)
(334.925 143.198 403.709)
(352.669 14.7972 515.736)
(335.392 143.198 406.657)
(352.669 17.7833 515.736)
(335.859 143.198 409.605)
(352.669 20.7694 515.736)
(336.326 143.198 412.553)
(352.669 23.7555 515.736)
(352.669 26.7417 515.736)
(336.793 143.198 415.502)
(352.669 29.7277 515.736)
(337.26 143.198 418.449)
(352.669 32.7139 515.736)
(337.727 143.198 421.398)
(352.669 35.7 515.736)
(338.194 143.198 424.346)
(352.669 38.6861 515.736)
(338.661 143.198 427.294)
(352.669 41.6722 515.736)
(339.128 143.198 430.242)
(352.669 44.6583 515.736)
(339.595 143.198 433.19)
(352.669 47.6444 515.736)
(352.669 50.6306 515.736)
(340.061 143.198 436.138)
(352.669 53.6166 515.736)
(340.529 143.198 439.087)
(352.669 56.6028 515.736)
(340.995 143.198 442.034)
(352.669 59.5888 515.736)
(341.462 143.198 444.983)
(352.669 62.575 515.736)
(341.929 143.198 447.931)
(352.669 65.5611 515.736)
(342.396 143.198 450.879)
(352.669 68.5472 515.736)
(342.863 143.198 453.827)
(352.669 71.5333 515.736)
(352.669 74.5194 515.736)
(343.33 143.198 456.775)
(352.669 77.5055 515.736)
(343.797 143.198 459.723)
(352.669 80.4917 515.736)
(344.264 143.198 462.672)
(352.669 83.4777 515.737)
(344.731 143.198 465.619)
(352.669 86.4639 515.737)
(345.198 143.198 468.568)
(352.669 89.4499 515.737)
(345.665 143.198 471.515)
(352.669 92.4361 515.737)
(346.132 143.198 474.464)
(352.669 95.4222 515.737)
(352.669 98.4083 515.737)
(346.599 143.198 477.411)
(352.669 101.394 515.737)
(347.066 143.198 480.36)
(352.669 104.381 515.737)
(347.533 143.198 483.308)
(352.669 107.367 515.737)
(348 143.198 486.256)
(352.669 110.353 515.737)
(348.466 143.198 489.204)
(352.669 113.339 515.737)
(348.933 143.198 492.153)
(352.669 116.325 515.737)
(349.4 143.198 495.1)
(352.669 119.311 515.737)
(352.669 122.65 515.737)
(349.867 143.198 498.049)
(352.669 125.342 515.737)
(350.334 143.198 500.996)
(352.669 128.269 515.737)
(350.801 143.198 503.945)
(352.669 131.255 515.737)
(351.268 143.198 506.892)
(352.669 134.242 515.737)
(351.735 143.198 509.841)
(352.669 137.228 515.737)
(352.202 143.198 512.789)
(352.669 140.214 515.737)
(319.637 -60.9414 307.186)
(319.669 -69.7707 307.385)
(319.652 -66.3852 307.279)
(319.645 -63.6633 307.232)
(318.078 38.7407 297.338)
(318.082 41.7813 297.365)
(318.086 44.8219 297.391)
(318.09 47.8626 297.417)
(318.095 50.9032 297.444)
(318.099 53.9439 297.47)
(318.103 56.9845 297.496)
(318.107 60.0252 297.523)
(318.111 63.0658 297.549)
(318.115 66.1065 297.575)
(318.184 -24.5875 298.006)
(318.153 -22.488 297.815)
(318.074 35.7 297.312)
(318.12 69.1471 297.602)
(318.124 72.1878 297.628)
(318.128 75.2284 297.654)
(318.132 78.2691 297.68)
(318.136 81.3097 297.707)
(318.14 84.3504 297.733)
(318.145 87.391 297.759)
(318.149 90.4317 297.786)
(318.153 93.4723 297.812)
(318.171 96.5074 297.925)
(318.238 98.9434 298.349)
(318.328 102.204 298.917)
(318.406 105.053 299.413)
(318.485 107.902 299.909)
(318.721 116.447 301.397)
(318.799 119.296 301.893)
(318.878 122.144 302.389)
(318.956 124.993 302.885)
(319.035 127.841 303.382)
(319.995 133.869 307.459)
(319.65 136.951 307.264)
(319.682 140.96 307.546)
(318.564 110.75 300.405)
(318.642 113.599 300.901)
(320.523 -71.8 312.776)
(319.936 -71.8 309.862)
(321.182 -71.6203 315.434)
(321.42 -71.8 318.443)
(319 -54.1682 303.158)
(318.918 -51.2102 302.643)
(318.836 -48.2521 302.128)
(318.755 -45.294 301.613)
(318.673 -42.3359 301.097)
(318.592 -39.3779 300.582)
(318.51 -36.4198 300.067)
(318.428 -33.4617 299.552)
(318.347 -30.5036 299.037)
(318.265 -27.5456 298.522)
(318.149 -19.4219 297.789)
(318.145 -16.3604 297.763)
(318.141 -13.2972 297.736)
(318.137 -10.236 297.71)
(318.132 -7.17393 297.683)
(318.128 -4.11114 297.656)
(318.124 -1.04909 297.63)
(318.12 2.01259 297.604)
(318.116 5.07498 297.577)
(318.111 8.137 297.551)
(318.107 11.1994 297.524)
(318.103 14.2611 297.498)
(318.099 17.3231 297.471)
(318.095 20.3859 297.445)
(318.09 23.448 297.418)
(318.086 26.5092 297.392)
(318.082 29.5724 297.365)
(318.078 32.6339 297.339)
(319.714 143.275 310.009)
(320.559 143.2 313.004)
(320.99 143.2 315.723)
(321.42 143.2 318.443)
)

// edges

298
(
(14 15)
(16 14)
(17 16)
(18 17)
(19 18)
(20 19)
(21 20)
(22 21)
(23 22)
(24 23)
(25 24)
(26 25)
(27 26)
(28 27)
(29 28)
(30 29)
(31 30)
(32 31)
(33 32)
(34 33)
(35 34)
(36 35)
(37 36)
(38 37)
(39 38)
(40 39)
(41 40)
(42 41)
(43 42)
(44 43)
(45 44)
(46 45)
(47 46)
(48 47)
(49 48)
(50 49)
(51 50)
(52 51)
(53 52)
(54 53)
(55 54)
(56 55)
(57 56)
(58 57)
(59 58)
(60 59)
(61 60)
(62 61)
(63 62)
(64 63)
(65 64)
(66 65)
(67 66)
(68 67)
(69 68)
(70 69)
(71 70)
(72 71)
(73 72)
(74 73)
(75 74)
(76 75)
(77 76)
(78 79)
(80 77)
(79 81)
(82 80)
(81 83)
(0 82)
(83 84)
(85 0)
(86 85)
(84 87)
(88 86)
(87 89)
(90 88)
(89 91)
(92 90)
(93 94)
(91 95)
(96 92)
(95 97)
(98 96)
(99 93)
(94 100)
(97 101)
(102 98)
(100 99)
(103 102)
(101 104)
(105 103)
(104 106)
(107 105)
(106 108)
(109 107)
(108 110)
(111 109)
(110 112)
(113 111)
(112 114)
(115 113)
(114 116)
(117 115)
(118 117)
(116 119)
(120 118)
(119 121)
(122 120)
(121 123)
(124 122)
(123 125)
(126 124)
(125 127)
(128 126)
(127 129)
(130 128)
(129 131)
(132 130)
(133 132)
(131 134)
(135 133)
(134 136)
(137 135)
(136 138)
(139 137)
(138 140)
(141 139)
(140 142)
(143 141)
(142 144)
(145 143)
(144 146)
(147 145)
(148 147)
(146 149)
(150 148)
(149 151)
(152 150)
(151 153)
(154 152)
(153 155)
(156 154)
(155 157)
(158 156)
(157 159)
(160 158)
(159 161)
(162 160)
(163 162)
(161 164)
(165 163)
(164 166)
(167 165)
(166 168)
(169 167)
(168 170)
(171 169)
(170 172)
(173 171)
(172 174)
(175 173)
(174 176)
(177 175)
(178 177)
(176 179)
(180 178)
(179 181)
(182 180)
(181 183)
(184 182)
(183 185)
(186 184)
(185 187)
(188 186)
(187 189)
(190 188)
(189 191)
(192 190)
(193 192)
(191 194)
(195 193)
(194 196)
(197 195)
(196 198)
(199 197)
(198 200)
(201 199)
(200 202)
(203 201)
(202 204)
(205 203)
(204 206)
(207 205)
(208 207)
(206 209)
(210 208)
(209 211)
(212 210)
(211 213)
(214 212)
(213 215)
(216 214)
(215 217)
(218 216)
(217 219)
(220 218)
(219 1)
(1 220)
(221 2)
(222 223)
(223 224)
(224 221)
(225 226)
(226 227)
(227 228)
(228 229)
(229 230)
(230 231)
(231 232)
(232 233)
(233 234)
(235 236)
(237 225)
(238 239)
(239 240)
(240 241)
(241 242)
(242 243)
(243 244)
(244 245)
(245 246)
(246 247)
(247 248)
(248 249)
(249 250)
(250 251)
(234 238)
(252 253)
(253 254)
(254 255)
(255 256)
(256 4)
(4 3)
(3 257)
(257 258)
(258 259)
(251 260)
(260 261)
(261 252)
(262 263)
(263 5)
(5 222)
(264 262)
(265 264)
(15 265)
(6 266)
(2 6)
(267 268)
(266 267)
(268 269)
(269 270)
(270 271)
(271 272)
(272 273)
(273 274)
(274 275)
(275 235)
(276 277)
(236 276)
(277 278)
(278 279)
(279 280)
(280 281)
(281 282)
(282 283)
(283 284)
(284 285)
(285 286)
(286 287)
(287 288)
(288 289)
(289 290)
(290 291)
(291 292)
(292 293)
(293 237)
(294 295)
(7 294)
(259 7)
(295 296)
(296 297)
(297 78)
(8 9)
(9 10)
(10 11)
(11 12)
(13 8)
(12 13)
)

// concaveStart mixedStart nonFeatureStart
0 0 14
// internalStart flatStart openStart multipleStart
0 0 0 298
// normals

294
(
(0.987685 -6.7101e-06 -0.156455)
(0.987684 -3.8836e-06 -0.156463)
(0.987692 0.000109161 -0.156414)
(0.987685 0.000138854 -0.156455)
(0.987684 0.000132907 -0.156463)
(0.987683 0.000129512 -0.156465)
(0.987685 -1.9764e-05 -0.156455)
(0.987684 -1.65444e-05 -0.156465)
(0.987736 -0.000274703 -0.156136)
(0.987685 -0.000413814 -0.156455)
(0.987683 -0.000299108 -0.156465)
(0.987683 -0.000299108 -0.156465)
(0.987685 -0.000292502 -0.156455)
(0.987683 -0.000316389 -0.156465)
(0.987692 -0.000403093 -0.156413)
(0.987685 -0.000314676 -0.156455)
(0.987683 -0.000309452 -0.156465)
(0.987683 -0.000309452 -0.156465)
(0.987685 4.13152e-05 -0.156455)
(0.987683 5.07491e-05 -0.156465)
(0.987683 5.07491e-05 -0.156465)
(0.987685 6.17047e-05 -0.156455)
(0.987683 8.26955e-05 -0.156465)
(0.987736 0.000127801 -0.156136)
(0.987641 0.000525724 -0.156732)
(0.987736 -0.000189335 -0.156136)
(0.987683 -0.000334622 -0.156465)
(0.987685 -0.000310561 -0.156453)
(0.987683 -0.000152201 -0.156465)
(0.987683 -0.000152201 -0.156465)
(0.987685 4.75472e-05 -0.156455)
(0.987683 6.54437e-05 -0.156465)
(0.987683 6.54437e-05 -0.156465)
(0.987685 8.89107e-05 -0.156455)
(0.987692 -6.85172e-05 -0.156413)
(0.987675 3.57898e-06 -0.156517)
(0.987693 9.61269e-07 -0.156403)
(0.987684 -3.91504e-05 -0.156465)
(0.987735 -0.000575355 -0.156136)
(0.987683 -0.000133276 -0.156465)
(0.987685 -0.00013058 -0.156455)
(0.987683 -0.000149368 -0.156465)
(0.987693 -0.000192537 -0.156403)
(0.987675 -2.56877e-05 -0.156517)
(0.987692 -4.19783e-05 -0.156413)
(0.987677 -0.000150315 -0.156507)
(0.987692 -0.00010629 -0.156413)
(0.987683 -6.95081e-05 -0.156465)
(0.987685 -6.77992e-05 -0.156455)
(0.987683 -7.82552e-05 -0.156465)
(0.987684 8.37318e-05 -0.156463)
(0.987685 6.32285e-05 -0.156455)
(0.987683 7.67059e-05 -0.156465)
(0.987736 -8.83386e-06 -0.156136)
(0.987641 0.000138025 -0.156732)
(0.987727 4.79297e-05 -0.156188)
(0.987692 -0.000131397 -0.156413)
(0.987675 -0.000314979 -0.156517)
(0.987693 -7.71278e-06 -0.156403)
(0.987683 9.54456e-05 -0.156465)
(0.987683 9.54456e-05 -0.156465)
(0.987685 9.9259e-05 -0.156455)
(0.987683 8.07455e-05 -0.156465)
(0.987685 -9.67921e-05 -0.156455)
(0.987685 7.3821e-05 -0.156455)
(0.987684 -9.4006e-05 -0.156463)
(0.987692 8.09739e-05 -0.156413)
(0.987692 4.52107e-05 -0.156414)
(0.987719 0.000259739 -0.15624)
(0.987685 -0.000142778 -0.156455)
(0.987697 0 -0.156377)
(0.987737 0 -0.156126)
(0.987684 -0.000141001 -0.156463)
(0.987742 5.42388e-05 -0.156093)
(0.987683 -0.000112652 -0.156465)
(0.987747 0 -0.156061)
(0.987685 -0.000112055 -0.156455)
(0.987737 0 -0.156126)
(0.987709 -0.000280322 -0.156305)
(0.987684 -2.18646e-05 -0.156465)
(0.98773 0 -0.156173)
(0.987736 -9.09639e-05 -0.156136)
(0.98773 0 -0.156173)
(0.987681 0.000288189 -0.15648)
(0.987682 -0.000618172 -0.156475)
(0.987633 0.000114081 -0.156784)
(0.987717 0 -0.156253)
(0.987708 -0.000158667 -0.156309)
(0.987717 0 -0.156253)
(0.987736 -5.95387e-05 -0.156136)
(0.987755 0 -0.156016)
(0.987684 -1.25426e-05 -0.156465)
(0.987755 0 -0.156016)
(0.987685 7.67555e-05 -0.156455)
(0.987745 0 -0.156079)
(0.987692 6.93025e-05 -0.156413)
(0.987716 0 -0.156259)
(0.987684 2.70917e-05 -0.156465)
(0.987721 0 -0.156227)
(0.987685 2.86176e-05 -0.156455)
(0.987706 -0.000333099 -0.156321)
(0.987684 3.73986e-05 -0.156465)
(0.987687 0 -0.156443)
(0.987687 0 -0.156443)
(0.987684 3.73986e-05 -0.156465)
(0.987674 0 -0.156522)
(0.987668 -0.000248398 -0.156564)
(0.987674 0 -0.156522)
(0.987698 -9.06716e-05 -0.156374)
(0.987688 0 -0.156437)
(0.987692 -0.000134753 -0.156413)
(0.987688 0 -0.156437)
(0.987713 6.80851e-05 -0.156279)
(0.987669 0 -0.156559)
(0.98766 5.33957e-05 -0.156612)
(0.987669 0 -0.156559)
(0.987683 -0.000212909 -0.156465)
(0.98765 0 -0.156674)
(0.98765 0 -0.156674)
(0.987685 -0.000207289 -0.156455)
(0.987673 0 -0.156529)
(0.987736 -0.000139439 -0.156136)
(0.987673 0 -0.156529)
(0.987683 0.000261242 -0.156465)
(0.987647 0 -0.156694)
(0.987685 0.000141158 -0.156453)
(0.987647 0 -0.156694)
(0.987683 0.000182699 -0.156465)
(0.987654 0 -0.156649)
(0.987683 0.000166288 -0.156465)
(0.987654 0 -0.156649)
(0.987685 5.69998e-05 -0.156455)
(0.987672 0 -0.156536)
(0.987672 0 -0.156536)
(0.987692 -3.88234e-05 -0.156413)
(0.987686 0 -0.156447)
(0.987675 1.79227e-05 -0.156517)
(0.987686 0 -0.156447)
(0.987693 -9.22064e-05 -0.156403)
(0.987669 0 -0.156554)
(0.987684 -2.32911e-05 -0.156465)
(0.987669 0 -0.156554)
(0.987683 -0.000127301 -0.156465)
(0.987656 0 -0.156636)
(0.987685 3.37841e-05 -0.156455)
(0.987656 0 -0.156636)
(0.987684 -3.54507e-06 -0.156465)
(0.987625 0 -0.156835)
(0.987625 0 -0.156835)
(0.987736 0.000120359 -0.156136)
(0.987656 0 -0.156638)
(0.987641 -0.000508734 -0.156732)
(0.987656 0 -0.156638)
(0.987727 -0.00029601 -0.156188)
(0.987654 0 -0.15665)
(0.987692 0.000365312 -0.156413)
(0.987654 0 -0.15665)
(0.987685 0.000378334 -0.156455)
(0.98762 0 -0.156864)
(0.987684 1.62631e-05 -0.156465)
(0.98762 0 -0.156864)
(0.987683 0.000117829 -0.156465)
(0.987681 0 -0.15648)
(0.987681 0 -0.15648)
(0.987685 5.32418e-05 -0.156455)
(0.987691 0 -0.156415)
(0.987683 5.70998e-05 -0.156465)
(0.987686 0 -0.156447)
(0.987692 0.000148772 -0.156413)
(0.987658 5.12237e-05 -0.156625)
(0.987677 0.000125013 -0.156507)
(0.98766 0 -0.156613)
(0.987692 -0.000103426 -0.156413)
(0.987681 0 -0.15648)
(0.987675 -0.00014376 -0.156516)
(0.987681 0 -0.15648)
(0.987693 -0.000164763 -0.156404)
(0.987669 0 -0.156556)
(0.987669 0 -0.156556)
(0.987675 -0.000145252 -0.156516)
(0.987685 0 -0.156454)
(0.987692 -0.000114093 -0.156414)
(0.987702 0 -0.156349)
(0.987685 -0.000119828 -0.156453)
(0.987702 0 -0.156349)
(0.987683 -0.000424503 -0.156465)
(0.987648 0 -0.156691)
(0.987736 -0.000332036 -0.156136)
(0.987648 0 -0.156691)
(0.987692 0.000172202 -0.156413)
(0.987661 0 -0.15661)
(0.987677 0.000134806 -0.156507)
(0.987661 0 -0.15661)
(0.987687 0 -0.156443)
(0.987692 0.000108272 -0.156413)
(0.987656 0 -0.156636)
(0.987675 5.90137e-05 -0.156517)
(0.987678 0 -0.1565)
(0.987693 -0.000130297 -0.156403)
(0.987689 0 -0.156432)
(0.987675 -0.000107583 -0.156517)
(0.987689 0 -0.156432)
(0.987693 0.000194221 -0.156403)
(0.987688 0 -0.156434)
(0.987683 0.000180931 -0.156465)
(0.987688 0 -0.156434)
(0.987683 -8.56235e-05 -0.156465)
(0.98767 0 -0.15655)
(0.981554 0.0583036 -0.182077)
(0.988125 0.000149609 -0.153652)
(0.987665 -0.000156654 -0.156581)
(0.983967 -0.000123051 -0.178351)
(0.987709 8.81275e-05 -0.156301)
(0.9877 3.84346e-05 -0.156359)
(0.987664 4.04578e-05 -0.15659)
(0.987685 -0.000236039 -0.156455)
(0.987683 3.94017e-05 -0.15647)
(0.987675 3.98123e-05 -0.156517)
(0.987708 8.97537e-05 -0.156308)
(0.987677 3.97355e-05 -0.156508)
(0.98768 3.95592e-05 -0.156488)
(0.987707 0.000350608 -0.156319)
(0.987674 3.98819e-05 -0.156525)
(0.987711 3.7846e-05 -0.156292)
(0.987698 3.85365e-05 -0.156371)
(0.987708 3.80235e-05 -0.156313)
(0.987654 9.28914e-05 -0.156653)
(0.987675 2.99129e-05 -0.156518)
(0.98772 -0.000279868 -0.156237)
(0.987738 8.80589e-05 -0.156122)
(0.987732 2.67677e-05 -0.156159)
(0.987687 -2.61233e-05 -0.156442)
(0.98771 3.22737e-05 -0.156297)
(0.987707 -3.20529e-05 -0.156314)
(0.987694 0.000186871 -0.156401)
(0.987684 -0.000140481 -0.156464)
(0.987709 -0.000239019 -0.156301)
(0.987684 0.000197449 -0.156461)
(0.98771 -0.000170136 -0.156298)
(0.987664 0.000220674 -0.156591)
(0.987648 -5.7694e-05 -0.156686)
(0.987671 0.0002122 -0.156543)
(0.991322 0.0254951 -0.128964)
(0.983495 -0.128958 -0.126918)
(0.987457 0.102963 -0.119699)
(0.9951 -0.000992216 -0.0988654)
(0.987721 -0.000193602 -0.156226)
(0.987728 0.000148015 -0.156184)
(0.987699 -0.000168994 -0.156364)
(0.980277 -0.00784864 -0.19747)
(0.994662 0.00506888 -0.103063)
(0.963317 0.107086 -0.246076)
(0.996339 0.0381014 -0.0765331)
(0.987668 0 -0.15656)
(0.987703 -0.000278815 -0.156341)
(0.990529 -0.0608911 -0.123067)
(0.987695 0.000151348 -0.156392)
(0.987704 0.000162726 -0.156337)
(0.987676 -0.00020473 -0.156512)
(0.98767 7.02289e-05 -0.156548)
(0.987711 -0.000165541 -0.156292)
(0.987678 0.000132285 -0.156499)
(0.98767 0.000124681 -0.15655)
(0.987668 -0.000205199 -0.156563)
(0.987666 0.00010952 -0.156578)
(0.987696 -0.000225884 -0.156389)
(0.98768 -3.92789e-05 -0.156487)
(0.987665 -3.02232e-05 -0.156583)
(0.987703 -8.93939e-05 -0.156341)
(0.987683 -3.91253e-05 -0.156468)
(0.987685 0.00023594 -0.156455)
(0.987666 -9.1523e-05 -0.156576)
(0.98768 -3.92762e-05 -0.156487)
(0.987702 -3.80922e-05 -0.15635)
(0.987703 -8.9432e-05 -0.156343)
(0.987686 0.000285894 -0.156449)
(0.987667 -9.14529e-05 -0.156567)
(0.987678 -3.93906e-05 -0.1565)
(0.987679 -8.92419e-05 -0.156493)
(0.987688 -3.88152e-05 -0.156435)
(0.987672 0.000233648 -0.156536)
(0.987651 -4.08784e-05 -0.15667)
(0.987672 -9.11878e-05 -0.15654)
(0.987669 -3.98828e-05 -0.156556)
(0.987729 -8.62874e-05 -0.156178)
(0.959434 0.0858551 -0.268543)
(0.999955 -0.00663177 -0.0067513)
(0.987668 -6.1393e-05 -0.15656)
(0.987732 0.000152852 -0.156157)
(0.987668 0 -0.15656)
(0.987637 0.00877448 -0.15651)
(0.987142 0.0105159 -0.159502)
(0.987153 0.00937183 -0.159501)
(0.98731 0.00992107 -0.158497)
)

// normal volume types

294
(
0
0
0
0
0
0
0
0
0
0
0
0
0
0
0
0
0
0
0
0
0
0
0
0
0
0
0
0
0
0
0
0
0
0
0
0
0
0
0
0
0
0
0
0
0
0
0
0
0
0
0
0
0
0
0
0
0
0
0
0
0
0
0
0
0
0
0
0
0
0
0
0
0
0
0
0
0
0
0
0
0
0
0
0
0
0
0
0
0
0
0
0
0
0
0
0
0
0
0
0
0
0
0
0
0
0
0
0
0
0
0
0
0
0
0
0
0
0
0
0
0
0
0
0
0
0
0
0
0
0
0
0
0
0
0
0
0
0
0
0
0
0
0
0
0
0
0
0
0
0
0
0
0
0
0
0
0
0
0
0
0
0
0
0
0
0
0
0
0
0
0
0
0
0
0
0
0
0
0
0
0
0
0
0
0
0
0
0
0
0
0
0
0
0
0
0
0
0
0
0
0
0
0
0
0
0
0
0
0
0
0
0
0
0
0
0
0
0
0
0
0
0
0
0
0
0
0
0
0
0
0
0
0
0
0
0
0
0
0
0
0
0
0
0
0
0
0
0
0
0
0
0
0
0
0
0
0
0
0
0
0
0
0
0
0
0
0
0
0
0
0
0
0
0
0
0
0
0
0
0
0
0
0
0
0
0
0
0
0
0
0
0
0
0
)

// normalDirections

298
(
1(1)
1(1)
1(1)
1(1)
1(1)
1(1)
1(1)
1(1)
1(1)
1(1)
1(1)
1(1)
1(1)
1(1)
1(1)
1(1)
1(1)
1(1)
1(1)
1(1)
1(1)
1(1)
1(1)
1(1)
1(1)
1(1)
1(1)
1(1)
1(1)
1(1)
1(1)
1(1)
1(1)
1(1)
1(1)
1(1)
1(1)
1(1)
1(1)
1(1)
1(1)
1(1)
1(1)
1(1)
1(1)
1(1)
1(1)
1(1)
1(1)
1(1)
1(1)
1(1)
1(1)
1(1)
1(1)
1(1)
1(1)
1(1)
1(1)
1(1)
1(1)
1(1)
1(1)
1(1)
1(1)
1(1)
1(1)
1(1)
1(1)
1(1)
1(1)
1(1)
1(1)
1(1)
1(1)
1(1)
1(1)
1(1)
1(1)
1(1)
1(1)
1(1)
1(1)
1(1)
1(1)
1(1)
1(1)
1(1)
1(1)
1(1)
1(1)
1(1)
1(1)
1(1)
1(1)
1(1)
1(1)
1(1)
1(1)
1(1)
1(1)
1(1)
1(1)
1(1)
1(1)
1(1)
1(1)
1(1)
1(1)
1(1)
1(1)
1(1)
1(1)
1(1)
1(1)
1(1)
1(1)
1(1)
1(1)
1(1)
1(1)
1(1)
1(1)
1(1)
1(1)
1(1)
1(1)
1(1)
1(1)
1(1)
1(1)
1(1)
1(1)
1(1)
1(1)
1(1)
1(1)
1(1)
1(1)
1(1)
1(1)
1(1)
1(1)
1(1)
1(1)
1(1)
1(1)
1(1)
1(1)
1(1)
1(1)
1(1)
1(1)
1(1)
1(1)
1(1)
1(1)
1(1)
1(1)
1(1)
1(1)
1(1)
1(1)
1(1)
1(1)
1(1)
1(1)
1(1)
1(1)
1(1)
1(1)
1(1)
1(1)
1(1)
1(1)
1(1)
1(1)
1(1)
1(1)
1(1)
1(1)
1(1)
1(1)
1(1)
1(1)
1(1)
1(1)
1(1)
1(1)
1(1)
1(1)
1(1)
1(1)
1(1)
1(1)
1(1)
1(1)
1(1)
1(1)
1(1)
1(1)
1(1)
1(1)
1(1)
1(1)
1(1)
1(1)
1(1)
1(1)
1(1)
1(1)
1(1)
1(1)
1(1)
1(1)
1(1)
1(1)
1(1)
1(1)
1(1)
1(1)
1(1)
1(1)
1(1)
1(1)
1(1)
1(1)
1(1)
1(1)
1(1)
1(1)
1(1)
1(1)
1(1)
1(1)
1(1)
1(1)
1(1)
1(1)
1(1)
1(1)
1(1)
1(1)
1(1)
1(1)
1(1)
1(1)
1(1)
1(1)
1(1)
1(1)
1(1)
1(1)
1(1)
1(1)
1(1)
1(1)
1(1)
1(1)
1(1)
1(1)
1(1)
1(1)
1(1)
1(1)
1(1)
1(1)
1(1)
1(1)
1(1)
1(1)
1(1)
1(1)
1(1)
1(1)
1(1)
1(1)
1(1)
1(1)
1(1)
1(1)
1(1)
1(1)
1(1)
1(1)
1(1)
1(1)
1(1)
1(1)
1(1)
1(1)
1(1)
1(1)
1(1)
1(1)
1(1)
1(1)
1(1)
)

// edgeNormals

298
(
1(0)
1(1)
1(2)
1(3)
1(4)
1(5)
1(6)
1(7)
1(8)
1(9)
1(10)
1(11)
1(12)
1(13)
1(14)
1(15)
1(16)
1(17)
1(18)
1(19)
1(20)
1(21)
1(22)
1(23)
1(24)
1(25)
1(26)
1(27)
1(28)
1(29)
1(30)
1(31)
1(32)
1(33)
1(34)
1(35)
1(36)
1(37)
1(38)
1(39)
1(40)
1(41)
1(42)
1(43)
1(44)
1(45)
1(46)
1(47)
1(48)
1(49)
1(50)
1(51)
1(52)
1(53)
1(54)
1(55)
1(56)
1(57)
1(58)
1(59)
1(60)
1(61)
1(62)
1(63)
1(64)
1(65)
1(66)
1(67)
1(68)
1(69)
1(70)
1(71)
1(72)
1(73)
1(74)
1(75)
1(76)
1(77)
1(78)
1(79)
1(80)
1(81)
1(82)
1(83)
1(84)
1(85)
1(86)
1(87)
1(88)
1(89)
1(90)
1(91)
1(92)
1(93)
1(94)
1(95)
1(96)
1(97)
1(98)
1(99)
1(100)
1(101)
1(102)
1(103)
1(104)
1(105)
1(106)
1(107)
1(108)
1(109)
1(110)
1(111)
1(112)
1(113)
1(114)
1(115)
1(116)
1(117)
1(118)
1(119)
1(120)
1(121)
1(122)
1(123)
1(124)
1(125)
1(126)
1(127)
1(128)
1(129)
1(130)
1(131)
1(132)
1(133)
1(134)
1(135)
1(136)
1(137)
1(138)
1(139)
1(140)
1(141)
1(142)
1(143)
1(144)
1(145)
1(146)
1(147)
1(148)
1(149)
1(150)
1(151)
1(152)
1(153)
1(154)
1(155)
1(156)
1(157)
1(158)
1(159)
1(160)
1(161)
1(162)
1(163)
1(164)
1(165)
1(166)
1(167)
1(168)
1(169)
1(170)
1(171)
1(172)
1(173)
1(174)
1(175)
1(176)
1(177)
1(178)
1(179)
1(180)
1(181)
1(182)
1(183)
1(184)
1(185)
1(186)
1(187)
1(188)
1(189)
1(190)
1(191)
1(192)
1(193)
1(194)
1(195)
1(196)
1(197)
1(198)
1(199)
1(200)
1(201)
1(202)
1(203)
1(204)
1(205)
1(206)
1(207)
1(208)
1(209)
1(210)
1(211)
1(212)
1(213)
1(214)
1(215)
1(216)
1(217)
1(218)
1(219)
1(220)
1(221)
1(222)
1(223)
1(224)
1(225)
1(226)
1(227)
1(228)
1(229)
1(230)
1(231)
1(232)
1(233)
1(234)
1(235)
1(236)
1(237)
1(238)
1(239)
1(240)
1(241)
1(242)
1(243)
1(244)
1(245)
1(246)
1(247)
1(248)
1(249)
1(250)
1(250)
1(251)
1(252)
1(253)
1(254)
1(255)
1(256)
1(257)
1(258)
1(259)
1(260)
1(261)
1(262)
1(263)
1(264)
1(265)
1(266)
1(267)
1(268)
1(269)
1(270)
1(271)
1(272)
1(273)
1(274)
1(275)
1(276)
1(277)
1(278)
1(279)
1(280)
1(281)
1(282)
1(283)
1(284)
1(285)
1(286)
1(286)
1(287)
1(288)
1(289)
1(290)
1(290)
1(291)
1(292)
1(293)
1(293)
)

// featurePointNormals

14
(
1(68)
1(206)
2(208 255)
2(242 243)
2(241 242)
1(250)
2(254 255)
1(286)
2(290 293)
1(290)
2(290 291)
1(291)
1(292)
1(293)
)

// featurePointEdges

14
(
2(68 70)
2(206 207)
2(208 256)
2(242 243)
2(241 242)
2(250 251)
2(255 256)
2(287 288)
2(292 296)
2(292 293)
2(293 294)
2(294 295)
2(295 297)
2(296 297)
)

// regionEdges

298
(
0
1
2
3
4
5
6
7
8
9
10
11
12
13
14
15
16
17
18
19
20
21
22
23
24
25
26
27
28
29
30
31
32
33
34
35
36
37
38
39
40
41
42
43
44
45
46
47
48
49
50
51
52
53
54
55
56
57
58
59
60
61
62
63
64
65
66
67
68
69
70
71
72
73
74
75
76
77
78
79
80
81
82
83
84
85
86
87
88
89
90
91
92
93
94
95
96
97
98
99
100
101
102
103
104
105
106
107
108
109
110
111
112
113
114
115
116
117
118
119
120
121
122
123
124
125
126
127
128
129
130
131
132
133
134
135
136
137
138
139
140
141
142
143
144
145
146
147
148
149
150
151
152
153
154
155
156
157
158
159
160
161
162
163
164
165
166
167
168
169
170
171
172
173
174
175
176
177
178
179
180
181
182
183
184
185
186
187
188
189
190
191
192
193
194
195
196
197
198
199
200
201
202
203
204
205
206
207
208
209
210
211
212
213
214
215
216
217
218
219
220
221
222
223
224
225
226
227
228
229
230
231
232
233
234
235
236
237
238
239
240
241
242
243
244
245
246
247
248
249
250
251
252
253
254
255
256
257
258
259
260
261
262
263
264
265
266
267
268
269
270
271
272
273
274
275
276
277
278
279
280
281
282
283
284
285
286
287
288
289
290
291
292
293
294
295
296
297
)



// ************************************************************************* //
