/*--------------------------------*- C++ -*----------------------------------*\
  =========                 |
  \\      /  F ield         | OpenFOAM: The Open Source CFD Toolbox
   \\    /   O peration     | Website:  https://openfoam.org
    \\  /    A nd           | Version:  11
     \\/     M anipulation  |
\*---------------------------------------------------------------------------*/
FoamFile
{
    format      ascii;
    class       extendedFeatureEdgeMesh;
    location    "constant/extendedFeatureEdgeMesh";
    object      Inlets.extendedFeatureEdgeMesh;
}
// * * * * * * * * * * * * * * * * * * * * * * * * * * * * * * * * * * * * * //

// points

288
(
(0.352668 -0.0718 0.515735)
(0.352669 0.143198 0.515737)
(0.319434 -0.0582077 0.306967)
(0.319529 0.130692 0.307076)
(0.319113 0.13069 0.303878)
(0.319698 -0.0718 0.307565)
(0.319215 -0.0568265 0.304521)
(0.319697 0.1432 0.307565)
(0.321851 -0.0718 0.321162)
(0.322318 -0.0718 0.32411)
(0.322785 -0.0718 0.327058)
(0.323252 -0.0718 0.330007)
(0.323719 -0.0718 0.332955)
(0.324186 -0.0718 0.335903)
(0.324653 -0.0718 0.338851)
(0.32512 -0.0718 0.341799)
(0.325587 -0.0718 0.344747)
(0.326053 -0.0718 0.347695)
(0.32652 -0.0718 0.350643)
(0.326987 -0.0718 0.353591)
(0.327454 -0.0718 0.356539)
(0.327921 -0.0718 0.359487)
(0.328388 -0.0718 0.362435)
(0.328855 -0.0718 0.365384)
(0.329322 -0.0718 0.368332)
(0.329789 -0.0718 0.37128)
(0.330256 -0.0718 0.374228)
(0.330723 -0.0718 0.377176)
(0.33119 -0.0718 0.380124)
(0.331657 -0.0718 0.383072)
(0.332124 -0.0718 0.38602)
(0.332591 -0.0718 0.388968)
(0.333057 -0.0718 0.391916)
(0.333525 -0.0718 0.394865)
(0.333991 -0.0718 0.397813)
(0.334458 -0.0718 0.400761)
(0.334925 -0.0718 0.403709)
(0.335392 -0.0718 0.406657)
(0.335859 -0.0718 0.409605)
(0.336326 -0.0718 0.412553)
(0.336793 -0.0718 0.415501)
(0.33726 -0.0718 0.418449)
(0.337727 -0.0718 0.421397)
(0.338194 -0.0718 0.424346)
(0.338661 -0.0718 0.427293)
(0.339128 -0.0718 0.430242)
(0.339595 -0.0718 0.43319)
(0.340061 -0.0718 0.436138)
(0.340528 -0.0718 0.439086)
(0.340995 -0.0718 0.442034)
(0.341462 -0.0718 0.444982)
(0.341929 -0.0718 0.447931)
(0.342396 -0.0718 0.450878)
(0.342863 -0.0718 0.453827)
(0.34333 -0.0718 0.456774)
(0.343797 -0.0718 0.459723)
(0.344264 -0.0718 0.462671)
(0.344731 -0.0718 0.465619)
(0.345198 -0.0718 0.468567)
(0.345665 -0.0718 0.471515)
(0.346132 -0.0718 0.474463)
(0.346599 -0.0718 0.477411)
(0.347065 -0.0718 0.480359)
(0.347533 -0.0718 0.483308)
(0.347999 -0.0718 0.486255)
(0.348466 -0.0718 0.489204)
(0.348933 -0.0718 0.492151)
(0.3494 -0.0718 0.4951)
(0.349867 -0.0718 0.498048)
(0.350334 -0.0718 0.500996)
(0.350801 -0.0718 0.503944)
(0.351268 -0.0718 0.506892)
(0.322318 0.143198 0.32411)
(0.321851 0.143198 0.321162)
(0.351735 -0.0718 0.50984)
(0.322785 0.143198 0.327058)
(0.352202 -0.0718 0.512789)
(0.323252 0.143198 0.330007)
(0.323719 0.143198 0.332955)
(0.352668 -0.0688139 0.515735)
(0.352668 -0.0658278 0.515735)
(0.324186 0.143198 0.335903)
(0.352668 -0.0628417 0.515736)
(0.324653 0.143198 0.338851)
(0.352668 -0.0598555 0.515736)
(0.32512 0.143198 0.341799)
(0.352668 -0.0568694 0.515736)
(0.325587 0.143198 0.344747)
(0.352668 -0.0538833 0.515736)
(0.326053 0.143198 0.347695)
(0.352668 -0.0508972 0.515736)
(0.326521 0.143198 0.350643)
(0.352668 -0.0479111 0.515736)
(0.352668 -0.044925 0.515736)
(0.326987 0.143198 0.353591)
(0.352668 -0.0419389 0.515736)
(0.327454 0.143198 0.356539)
(0.352668 -0.0389528 0.515736)
(0.327921 0.143198 0.359487)
(0.352668 -0.0359667 0.515736)
(0.328388 0.143198 0.362436)
(0.352668 -0.0329806 0.515736)
(0.328855 0.143198 0.365384)
(0.352668 -0.0299945 0.515736)
(0.329322 0.143198 0.368332)
(0.352669 -0.0270083 0.515736)
(0.329789 0.143198 0.37128)
(0.352669 -0.0240222 0.515736)
(0.352669 -0.0210361 0.515736)
(0.330256 0.143198 0.374228)
(0.352669 -0.01805 0.515736)
(0.330681 0.143198 0.376909)
(0.352669 -0.0150639 0.515736)
(0.33119 0.143198 0.380124)
(0.352669 -0.0120778 0.515736)
(0.331657 0.143198 0.383073)
(0.352669 -0.00909167 0.515736)
(0.332082 0.143198 0.385759)
(0.352669 -0.00610557 0.515736)
(0.332591 0.143198 0.388969)
(0.352669 -0.00311944 0.515736)
(0.333058 0.143198 0.391917)
(0.352669 -0.000133355 0.515736)
(0.352669 0.00285278 0.515736)
(0.333525 0.143198 0.394865)
(0.352669 0.00583886 0.515736)
(0.333991 0.143198 0.397813)
(0.352669 0.008825 0.515736)
(0.334458 0.143198 0.400761)
(0.352669 0.0118111 0.515736)
(0.334925 0.143198 0.403709)
(0.352669 0.0147972 0.515736)
(0.335392 0.143198 0.406657)
(0.352669 0.0177833 0.515736)
(0.335859 0.143198 0.409605)
(0.352669 0.0207694 0.515736)
(0.336326 0.143198 0.412553)
(0.352669 0.0237555 0.515736)
(0.352669 0.0267417 0.515736)
(0.336793 0.143198 0.415502)
(0.352669 0.0297277 0.515736)
(0.33726 0.143198 0.418449)
(0.352669 0.0327139 0.515736)
(0.337727 0.143198 0.421398)
(0.352669 0.0357 0.515736)
(0.338194 0.143198 0.424346)
(0.352669 0.0386861 0.515736)
(0.338661 0.143198 0.427294)
(0.352669 0.0416722 0.515736)
(0.339128 0.143198 0.430242)
(0.352669 0.0446583 0.515736)
(0.339595 0.143198 0.43319)
(0.352669 0.0476444 0.515736)
(0.352669 0.0506306 0.515736)
(0.340061 0.143198 0.436138)
(0.352669 0.0536166 0.515736)
(0.340529 0.143198 0.439087)
(0.352669 0.0566028 0.515736)
(0.340995 0.143198 0.442034)
(0.352669 0.0595888 0.515736)
(0.341462 0.143198 0.444983)
(0.352669 0.062575 0.515736)
(0.341929 0.143198 0.447931)
(0.352669 0.0655611 0.515736)
(0.342396 0.143198 0.450879)
(0.352669 0.0685472 0.515736)
(0.342863 0.143198 0.453827)
(0.352669 0.0715333 0.515736)
(0.352669 0.0745194 0.515736)
(0.34333 0.143198 0.456775)
(0.352669 0.0775055 0.515736)
(0.343797 0.143198 0.459723)
(0.352669 0.0804917 0.515736)
(0.344264 0.143198 0.462672)
(0.352669 0.0834777 0.515737)
(0.344731 0.143198 0.465619)
(0.352669 0.0864639 0.515737)
(0.345198 0.143198 0.468568)
(0.352669 0.0894499 0.515737)
(0.345665 0.143198 0.471515)
(0.352669 0.0924361 0.515737)
(0.346132 0.143198 0.474464)
(0.352669 0.0954222 0.515737)
(0.352669 0.0984083 0.515737)
(0.346599 0.143198 0.477411)
(0.352669 0.101394 0.515737)
(0.347066 0.143198 0.48036)
(0.352669 0.104381 0.515737)
(0.347533 0.143198 0.483308)
(0.352669 0.107367 0.515737)
(0.348 0.143198 0.486256)
(0.352669 0.110353 0.515737)
(0.348466 0.143198 0.489204)
(0.352669 0.113339 0.515737)
(0.348933 0.143198 0.492153)
(0.352669 0.116325 0.515737)
(0.3494 0.143198 0.4951)
(0.352669 0.119311 0.515737)
(0.352669 0.12265 0.515737)
(0.349867 0.143198 0.498049)
(0.352669 0.125342 0.515737)
(0.350334 0.143198 0.500996)
(0.352669 0.128269 0.515737)
(0.350801 0.143198 0.503945)
(0.352669 0.131255 0.515737)
(0.351268 0.143198 0.506892)
(0.352669 0.134242 0.515737)
(0.351735 0.143198 0.509841)
(0.352669 0.137228 0.515737)
(0.352202 0.143198 0.512789)
(0.352669 0.140214 0.515737)
(0.319637 -0.0609414 0.307186)
(0.319652 -0.0663852 0.307279)
(0.319669 -0.0697707 0.307385)
(0.319645 -0.0636633 0.307232)
(0.318082 0.0417813 0.297365)
(0.318078 0.0387407 0.297338)
(0.318086 0.0448219 0.297391)
(0.31809 0.0478626 0.297417)
(0.318095 0.0509032 0.297444)
(0.318099 0.0539439 0.29747)
(0.318103 0.0569845 0.297496)
(0.318107 0.0600252 0.297523)
(0.318111 0.0630658 0.297549)
(0.318115 0.0661065 0.297575)
(0.318153 -0.022488 0.297815)
(0.318184 -0.0245875 0.298006)
(0.318074 0.0357 0.297312)
(0.318124 0.0721878 0.297628)
(0.31812 0.0691471 0.297602)
(0.318128 0.0752284 0.297654)
(0.318132 0.0782691 0.29768)
(0.318136 0.0813097 0.297707)
(0.31814 0.0843504 0.297733)
(0.318145 0.087391 0.297759)
(0.318149 0.0904317 0.297786)
(0.318153 0.0934723 0.297812)
(0.318171 0.0965074 0.297925)
(0.318238 0.0989434 0.298349)
(0.318328 0.102204 0.298917)
(0.318406 0.105053 0.299413)
(0.318485 0.107902 0.299909)
(0.318799 0.119296 0.301893)
(0.318721 0.116447 0.301397)
(0.318878 0.122144 0.302389)
(0.318956 0.124993 0.302885)
(0.319035 0.127841 0.303382)
(0.319995 0.133869 0.307459)
(0.31965 0.136951 0.307264)
(0.319682 0.14096 0.307546)
(0.318564 0.11075 0.300405)
(0.318642 0.113599 0.300901)
(0.319936 -0.0718 0.309862)
(0.320523 -0.0718 0.312776)
(0.321182 -0.0716203 0.315434)
(0.32142 -0.0718 0.318443)
(0.319 -0.0541682 0.303158)
(0.318836 -0.0482521 0.302128)
(0.318918 -0.0512102 0.302643)
(0.318755 -0.045294 0.301613)
(0.318673 -0.0423359 0.301097)
(0.318592 -0.0393779 0.300582)
(0.31851 -0.0364198 0.300067)
(0.318428 -0.0334617 0.299552)
(0.318347 -0.0305036 0.299037)
(0.318265 -0.0275456 0.298522)
(0.318145 -0.0163604 0.297763)
(0.318149 -0.0194219 0.297789)
(0.318141 -0.0132972 0.297736)
(0.318137 -0.010236 0.29771)
(0.318132 -0.00717393 0.297683)
(0.318128 -0.00411114 0.297656)
(0.318124 -0.00104909 0.29763)
(0.31812 0.00201259 0.297604)
(0.318116 0.00507498 0.297577)
(0.318111 0.008137 0.297551)
(0.318107 0.0111994 0.297524)
(0.318103 0.0142611 0.297498)
(0.318099 0.0173231 0.297471)
(0.318095 0.0203859 0.297445)
(0.31809 0.023448 0.297418)
(0.318086 0.0265092 0.297392)
(0.318082 0.0295724 0.297365)
(0.318078 0.0326339 0.297339)
(0.320559 0.1432 0.313004)
(0.319714 0.143275 0.310009)
(0.32099 0.1432 0.315723)
(0.32142 0.1432 0.318443)
)

// edges

288
(
(8 9)
(9 10)
(10 11)
(11 12)
(12 13)
(13 14)
(14 15)
(15 16)
(16 17)
(17 18)
(18 19)
(19 20)
(20 21)
(21 22)
(22 23)
(23 24)
(24 25)
(25 26)
(26 27)
(27 28)
(28 29)
(29 30)
(30 31)
(31 32)
(32 33)
(33 34)
(34 35)
(35 36)
(36 37)
(37 38)
(38 39)
(39 40)
(40 41)
(41 42)
(42 43)
(43 44)
(44 45)
(45 46)
(46 47)
(47 48)
(48 49)
(49 50)
(50 51)
(51 52)
(52 53)
(53 54)
(54 55)
(55 56)
(56 57)
(57 58)
(58 59)
(59 60)
(60 61)
(61 62)
(62 63)
(63 64)
(64 65)
(65 66)
(66 67)
(67 68)
(68 69)
(69 70)
(70 71)
(72 73)
(71 74)
(75 72)
(74 76)
(77 75)
(76 0)
(78 77)
(0 79)
(79 80)
(81 78)
(80 82)
(83 81)
(82 84)
(85 83)
(84 86)
(87 85)
(86 88)
(89 87)
(88 90)
(91 89)
(90 92)
(92 93)
(94 91)
(93 95)
(96 94)
(95 97)
(98 96)
(97 99)
(100 98)
(99 101)
(102 100)
(101 103)
(104 102)
(103 105)
(106 104)
(105 107)
(107 108)
(109 106)
(108 110)
(111 109)
(110 112)
(113 111)
(112 114)
(115 113)
(114 116)
(117 115)
(116 118)
(119 117)
(118 120)
(121 119)
(120 122)
(122 123)
(124 121)
(123 125)
(126 124)
(125 127)
(128 126)
(127 129)
(130 128)
(129 131)
(132 130)
(131 133)
(134 132)
(133 135)
(136 134)
(135 137)
(137 138)
(139 136)
(138 140)
(141 139)
(140 142)
(143 141)
(142 144)
(145 143)
(144 146)
(147 145)
(146 148)
(149 147)
(148 150)
(151 149)
(150 152)
(152 153)
(154 151)
(153 155)
(156 154)
(155 157)
(158 156)
(157 159)
(160 158)
(159 161)
(162 160)
(161 163)
(164 162)
(163 165)
(166 164)
(165 167)
(167 168)
(169 166)
(168 170)
(171 169)
(170 172)
(173 171)
(172 174)
(175 173)
(174 176)
(177 175)
(176 178)
(179 177)
(178 180)
(181 179)
(180 182)
(182 183)
(184 181)
(183 185)
(186 184)
(185 187)
(188 186)
(187 189)
(190 188)
(189 191)
(192 190)
(191 193)
(194 192)
(193 195)
(196 194)
(195 197)
(197 198)
(199 196)
(198 200)
(201 199)
(200 202)
(203 201)
(202 204)
(205 203)
(204 206)
(207 205)
(206 208)
(209 207)
(208 210)
(1 209)
(210 1)
(2 211)
(212 213)
(214 212)
(211 214)
(215 216)
(217 215)
(218 217)
(219 218)
(220 219)
(221 220)
(222 221)
(223 222)
(224 223)
(225 226)
(216 227)
(228 229)
(230 228)
(231 230)
(232 231)
(233 232)
(234 233)
(235 234)
(236 235)
(237 236)
(238 237)
(239 238)
(240 239)
(241 240)
(229 224)
(242 243)
(244 242)
(245 244)
(246 245)
(4 246)
(3 4)
(247 3)
(248 247)
(249 248)
(250 241)
(251 250)
(243 251)
(252 253)
(213 5)
(5 252)
(253 254)
(254 255)
(255 8)
(256 6)
(6 2)
(257 258)
(258 256)
(259 257)
(260 259)
(261 260)
(262 261)
(263 262)
(264 263)
(265 264)
(226 265)
(266 267)
(267 225)
(268 266)
(269 268)
(270 269)
(271 270)
(272 271)
(273 272)
(274 273)
(275 274)
(276 275)
(277 276)
(278 277)
(279 278)
(280 279)
(281 280)
(282 281)
(283 282)
(227 283)
(284 285)
(7 249)
(285 7)
(286 284)
(287 286)
(73 287)
)

// concaveStart mixedStart nonFeatureStart
0 0 8
// internalStart flatStart openStart multipleStart
0 0 0 288
// normals

286
(
(-0.987684 8.60598e-06 0.156461)
(-0.987684 8.08642e-06 0.156463)
(-0.987692 -9.7446e-05 0.156411)
(-0.987684 -0.0001347 0.156461)
(-0.987684 -0.000133607 0.156463)
(-0.987684 -0.000136923 0.156461)
(-0.987684 1.30096e-05 0.156463)
(-0.987684 1.35076e-05 0.156461)
(-0.987736 0.000276398 0.156132)
(-0.987684 0.000420066 0.156461)
(-0.987684 0.000294098 0.156463)
(-0.987684 0.000295749 0.156461)
(-0.987684 0.000296771 0.156463)
(-0.987684 0.000293076 0.156461)
(-0.987692 0.000408717 0.156411)
(-0.987684 0.000298707 0.156463)
(-0.987684 0.000299515 0.156461)
(-0.987685 0.000290907 0.156453)
(-0.987684 -4.72499e-05 0.156463)
(-0.987684 -4.57905e-05 0.156461)
(-0.987684 -4.56727e-05 0.156463)
(-0.987684 -4.73676e-05 0.156461)
(-0.987684 -7.94225e-05 0.156463)
(-0.987736 -0.000125017 0.15613)
(-0.98764 -0.000540713 0.156742)
(-0.987736 0.000190785 0.156132)
(-0.987684 0.000336282 0.156461)
(-0.987684 0.000339496 0.156463)
(-0.987684 0.000158069 0.156461)
(-0.987684 0.00015854 0.156463)
(-0.987684 -7.33053e-05 0.156461)
(-0.987684 -7.60739e-05 0.156463)
(-0.987684 -7.65048e-05 0.156461)
(-0.987684 -7.28744e-05 0.156463)
(-0.987692 6.46701e-05 0.156411)
(-0.987677 -6.56e-08 0.156504)
(-0.987692 2.07951e-06 0.156411)
(-0.987684 3.59573e-05 0.156463)
(-0.987735 0.000557475 0.15614)
(-0.987684 0.000123693 0.156463)
(-0.987684 0.000123276 0.156461)
(-0.987685 0.000107834 0.156453)
(-0.987692 0.00017587 0.156411)
(-0.987676 2.48988e-05 0.156514)
(-0.987692 4.10488e-05 0.156411)
(-0.987676 0.000159809 0.156514)
(-0.987692 0.000111052 0.156411)
(-0.987684 7.51331e-05 0.156461)
(-0.987684 7.53975e-05 0.156463)
(-0.987684 7.37799e-05 0.156461)
(-0.987684 -8.08021e-05 0.156463)
(-0.987684 -8.08021e-05 0.156463)
(-0.987684 -7.87172e-05 0.156461)
(-0.987736 6.94824e-06 0.156132)
(-0.987641 -0.000139251 0.156732)
(-0.987727 -4.9904e-05 0.156192)
(-0.987692 0.000123988 0.156411)
(-0.987676 0.00030598 0.156514)
(-0.987692 -1.49371e-05 0.156411)
(-0.987686 -8.33186e-05 0.156452)
(-0.987684 -9.05341e-05 0.156463)
(-0.987684 -9.05341e-05 0.156463)
(-0.987684 -7.63878e-05 0.15646)
(-0.987684 8.65234e-05 0.156461)
(-0.987684 -7.85303e-05 0.156463)
(-0.987684 8.60112e-05 0.156463)
(-0.987692 -8.74299e-05 0.156411)
(-0.987692 -4.52824e-05 0.156411)
(-0.98772 -0.000267299 0.156237)
(-0.987684 0.000142249 0.156461)
(-0.987697 0 0.156377)
(-0.987736 0 0.156132)
(-0.987684 0.000141923 0.156463)
(-0.987741 -5.29697e-05 0.1561)
(-0.987684 0.000107235 0.156461)
(-0.987746 0 0.156069)
(-0.987684 0.000107328 0.156463)
(-0.987737 0 0.156128)
(-0.987684 1.78014e-05 0.156461)
(-0.98773 0 0.156169)
(-0.987736 8.70027e-05 0.156132)
(-0.98773 0 0.156169)
(-0.987632 -0.000119656 0.156793)
(-0.987717 0 0.156254)
(-0.987717 0 0.156254)
(-0.987736 5.81418e-05 0.156132)
(-0.987755 0 0.156014)
(-0.987684 1.18772e-05 0.156461)
(-0.987755 0 0.156014)
(-0.987684 -7.07251e-05 0.156463)
(-0.987745 0 0.156077)
(-0.987692 -6.14518e-05 0.156411)
(-0.987716 0 0.156257)
(-0.987684 -2.2501e-05 0.156461)
(-0.987721 0 0.156226)
(-0.987684 -2.2265e-05 0.156463)
(-0.987706 0.000335149 0.156325)
(-0.987684 -3.80301e-05 0.156461)
(-0.987688 0 0.156439)
(-0.987688 0 0.156439)
(-0.987685 -3.4308e-05 0.156453)
(-0.987674 0 0.156528)
(-0.987666 0.000246872 0.156573)
(-0.987674 0 0.156528)
(-0.987699 8.07462e-05 0.15637)
(-0.987689 0 0.156432)
(-0.987692 0.000131383 0.156411)
(-0.987689 0 0.156432)
(-0.987712 -6.13351e-05 0.156288)
(-0.98767 0 0.156553)
(-0.987661 -6.33575e-05 0.156608)
(-0.98767 0 0.156553)
(-0.987684 0.000207887 0.156463)
(-0.98765 0 0.156677)
(-0.98765 0 0.156677)
(-0.987684 0.000201383 0.156461)
(-0.987673 0 0.156534)
(-0.987736 0.000141501 0.156132)
(-0.987673 0 0.156534)
(-0.987684 -0.000269728 0.156461)
(-0.987648 0 0.156689)
(-0.987684 -0.000141395 0.156463)
(-0.987648 0 0.156689)
(-0.987684 -0.000176116 0.156461)
(-0.987655 0 0.156646)
(-0.987684 -0.000163862 0.156463)
(-0.987655 0 0.156646)
(-0.987684 -5.07576e-05 0.156461)
(-0.987672 0 0.15654)
(-0.987672 0 0.15654)
(-0.987692 4.08124e-05 0.156411)
(-0.987686 0 0.156447)
(-0.987676 -1.61054e-05 0.156514)
(-0.987686 0 0.156447)
(-0.987692 9.84532e-05 0.156411)
(-0.98767 0 0.156548)
(-0.987684 2.49866e-05 0.156463)
(-0.98767 0 0.156548)
(-0.987685 0.000124322 0.156453)
(-0.987657 0 0.156635)
(-0.987684 -3.67896e-05 0.156461)
(-0.987657 0 0.156635)
(-0.987684 4.65559e-06 0.156463)
(-0.987625 0 0.156833)
(-0.987625 0 0.156833)
(-0.987735 -0.000116926 0.15614)
(-0.987655 0 0.156643)
(-0.987641 0.000510464 0.156732)
(-0.987655 0 0.156643)
(-0.987727 0.000299522 0.156192)
(-0.987654 0 0.156653)
(-0.987694 -0.000370035 0.156401)
(-0.987654 0 0.156653)
(-0.987684 -0.000389245 0.156463)
(-0.987621 0 0.15686)
(-0.987684 -2.44499e-05 0.156461)
(-0.987621 0 0.15686)
(-0.987684 -0.000129318 0.156463)
(-0.987682 0 0.156473)
(-0.987682 0 0.156473)
(-0.987684 -5.97668e-05 0.156461)
(-0.987691 0 0.156417)
(-0.987684 -6.03637e-05 0.156463)
(-0.987687 0 0.156442)
(-0.987692 -0.000148908 0.156411)
(-0.987658 -5.31491e-05 0.156623)
(-0.987676 -0.000122863 0.156514)
(-0.98766 0 0.156612)
(-0.987692 0.000101584 0.156411)
(-0.987682 0 0.156473)
(-0.987676 0.000142184 0.156514)
(-0.987682 0 0.156473)
(-0.987692 0.000173153 0.156411)
(-0.987669 0 0.156556)
(-0.987669 0 0.156556)
(-0.987676 0.000154997 0.156514)
(-0.987685 0 0.156455)
(-0.987694 0.000100128 0.156401)
(-0.987702 0 0.156348)
(-0.987684 0.000109274 0.156463)
(-0.987702 0 0.156348)
(-0.987684 0.000436097 0.156461)
(-0.987647 0 0.156694)
(-0.987735 0.000346228 0.156142)
(-0.987647 0 0.156694)
(-0.987692 -0.000167259 0.156411)
(-0.987661 0 0.15661)
(-0.987676 -0.000126265 0.156514)
(-0.987661 0 0.15661)
(-0.987687 0 0.15644)
(-0.987694 -0.000118969 0.156401)
(-0.987657 0 0.156631)
(-0.987676 -6.55365e-05 0.156514)
(-0.987679 0 0.156491)
(-0.987692 0.000123678 0.156411)
(-0.987689 0 0.156429)
(-0.987676 0.000103432 0.156512)
(-0.987689 0 0.156429)
(-0.987692 -0.000193008 0.156411)
(-0.98769 0 0.156426)
(-0.987684 -0.000181784 0.156463)
(-0.98769 0 0.156426)
(-0.987684 8.72991e-05 0.156463)
(-0.98767 0 0.15655)
(-0.981556 -0.0583068 0.182067)
(-0.988124 -0.000155511 0.153656)
(-0.987663 0.000162543 0.156592)
(-0.983969 0.000125678 0.178342)
(-0.987708 -9.07834e-05 0.156308)
(-0.9877 -3.91332e-05 0.156358)
(-0.987664 -4.26601e-05 0.156586)
(-0.987684 0.00023848 0.156464)
(-0.987682 -4.16567e-05 0.156472)
(-0.987674 -4.06187e-05 0.156528)
(-0.98771 -8.10205e-05 0.156299)
(-0.987677 -4.19559e-05 0.156505)
(-0.987681 -4.02216e-05 0.156483)
(-0.987707 -0.000360547 0.156314)
(-0.987674 -3.24275e-05 0.156523)
(-0.98771 -3.85797e-05 0.156295)
(-0.987699 -4.07341e-05 0.156366)
(-0.987708 -2.90565e-05 0.156313)
(-0.987656 -9.37969e-05 0.15664)
(-0.987674 -4.21498e-05 0.156528)
(-0.987719 0.000291064 0.15624)
(-0.987739 -8.90049e-05 0.156113)
(-0.987732 -3.894e-05 0.156161)
(-0.987685 3.38823e-05 0.156453)
(-0.987709 -4.08349e-05 0.156302)
(-0.987706 3.22722e-05 0.156322)
(-0.987692 -0.000191903 0.15641)
(-0.987682 0.000147756 0.156475)
(-0.987709 0.000238417 0.156303)
(-0.987684 -0.000201426 0.156464)
(-0.987709 0.000178073 0.156306)
(-0.987663 -0.000224419 0.156592)
(-0.98765 5.56988e-05 0.156679)
(-0.987671 -0.000215512 0.156543)
(-0.991321 -0.0254904 0.128972)
(-0.983495 0.128955 0.126916)
(-0.987457 -0.10296 0.119702)
(-0.9951 0.000990778 0.0988648)
(-0.987723 0.000193827 0.156218)
(-0.987728 -0.000151063 0.156181)
(-0.9877 0.000168057 0.156362)
(-0.980279 0.00785085 0.197463)
(-0.994662 -0.00507129 0.103062)
(-0.963316 -0.107079 0.246081)
(-0.996339 -0.0381021 0.0765316)
(-0.98767 0 0.15655)
(-0.987704 0.000278465 0.156338)
(-0.990529 0.06089 0.123064)
(-0.987696 -0.000147439 0.156387)
(-0.987704 -0.000167801 0.156337)
(-0.987676 0.000201622 0.156511)
(-0.987671 -6.67899e-05 0.156547)
(-0.987711 0.000163985 0.156292)
(-0.987677 -0.000137339 0.156508)
(-0.987671 -0.000119425 0.156544)
(-0.987668 0.000210626 0.156562)
(-0.987665 -0.000122449 0.156582)
(-0.987695 0.000233631 0.156391)
(-0.987681 4.14526e-05 0.156481)
(-0.987663 4.08318e-05 0.156591)
(-0.987704 9.03586e-05 0.156335)
(-0.987684 3.01624e-05 0.156463)
(-0.987685 -0.000225757 0.156455)
(-0.987666 8.29217e-05 0.156575)
(-0.987681 3.9934e-05 0.156482)
(-0.987701 4.03536e-05 0.156355)
(-0.987704 9.04128e-05 0.156339)
(-0.987688 -0.000287304 0.156437)
(-0.987667 9.25093e-05 0.156571)
(-0.987678 3.19917e-05 0.156498)
(-0.98768 9.17788e-05 0.156489)
(-0.987688 3.95355e-05 0.156437)
(-0.987672 -0.000234613 0.156538)
(-0.987651 4.15788e-05 0.15667)
(-0.987671 9.22364e-05 0.156543)
(-0.98767 4.20717e-05 0.156552)
(-0.987729 7.92556e-05 0.156178)
(-0.959436 -0.0858476 0.268539)
(-0.999955 0.00663454 0.00675892)
(-0.987669 7.00536e-05 0.156559)
(-0.987732 -0.000156428 0.156155)
(-0.98767 0 0.15655)
)

// normal volume types

286
(
0
0
0
0
0
0
0
0
0
0
0
0
0
0
0
0
0
0
0
0
0
0
0
0
0
0
0
0
0
0
0
0
0
0
0
0
0
0
0
0
0
0
0
0
0
0
0
0
0
0
0
0
0
0
0
0
0
0
0
0
0
0
0
0
0
0
0
0
0
0
0
0
0
0
0
0
0
0
0
0
0
0
0
0
0
0
0
0
0
0
0
0
0
0
0
0
0
0
0
0
0
0
0
0
0
0
0
0
0
0
0
0
0
0
0
0
0
0
0
0
0
0
0
0
0
0
0
0
0
0
0
0
0
0
0
0
0
0
0
0
0
0
0
0
0
0
0
0
0
0
0
0
0
0
0
0
0
0
0
0
0
0
0
0
0
0
0
0
0
0
0
0
0
0
0
0
0
0
0
0
0
0
0
0
0
0
0
0
0
0
0
0
0
0
0
0
0
0
0
0
0
0
0
0
0
0
0
0
0
0
0
0
0
0
0
0
0
0
0
0
0
0
0
0
0
0
0
0
0
0
0
0
0
0
0
0
0
0
0
0
0
0
0
0
0
0
0
0
0
0
0
0
0
0
0
0
0
0
0
0
0
0
0
0
0
0
0
0
0
0
0
0
0
0
0
0
0
0
0
0
0
0
0
0
0
0
)

// normalDirections

288
(
1(1)
1(1)
1(1)
1(1)
1(1)
1(1)
1(1)
1(1)
1(1)
1(1)
1(1)
1(1)
1(1)
1(1)
1(1)
1(1)
1(1)
1(1)
1(1)
1(1)
1(1)
1(1)
1(1)
1(1)
1(1)
1(1)
1(1)
1(1)
1(1)
1(1)
1(1)
1(1)
1(1)
1(1)
1(1)
1(1)
1(1)
1(1)
1(1)
1(1)
1(1)
1(1)
1(1)
1(1)
1(1)
1(1)
1(1)
1(1)
1(1)
1(1)
1(1)
1(1)
1(1)
1(1)
1(1)
1(1)
1(1)
1(1)
1(1)
1(1)
1(1)
1(1)
1(1)
1(1)
1(1)
1(1)
1(1)
1(1)
1(1)
1(1)
1(1)
1(1)
1(1)
1(1)
1(1)
1(1)
1(1)
1(1)
1(1)
1(1)
1(1)
1(1)
1(1)
1(1)
1(1)
1(1)
1(1)
1(1)
1(1)
1(1)
1(1)
1(1)
1(1)
1(1)
1(1)
1(1)
1(1)
1(1)
1(1)
1(1)
1(1)
1(1)
1(1)
1(1)
1(1)
1(1)
1(1)
1(1)
1(1)
1(1)
1(1)
1(1)
1(1)
1(1)
1(1)
1(1)
1(1)
1(1)
1(1)
1(1)
1(1)
1(1)
1(1)
1(1)
1(1)
1(1)
1(1)
1(1)
1(1)
1(1)
1(1)
1(1)
1(1)
1(1)
1(1)
1(1)
1(1)
1(1)
1(1)
1(1)
1(1)
1(1)
1(1)
1(1)
1(1)
1(1)
1(1)
1(1)
1(1)
1(1)
1(1)
1(1)
1(1)
1(1)
1(1)
1(1)
1(1)
1(1)
1(1)
1(1)
1(1)
1(1)
1(1)
1(1)
1(1)
1(1)
1(1)
1(1)
1(1)
1(1)
1(1)
1(1)
1(1)
1(1)
1(1)
1(1)
1(1)
1(1)
1(1)
1(1)
1(1)
1(1)
1(1)
1(1)
1(1)
1(1)
1(1)
1(1)
1(1)
1(1)
1(1)
1(1)
1(1)
1(1)
1(1)
1(1)
1(1)
1(1)
1(1)
1(1)
1(1)
1(1)
1(1)
1(1)
1(1)
1(1)
1(1)
1(1)
1(1)
1(1)
1(1)
1(1)
1(1)
1(1)
1(1)
1(1)
1(1)
1(1)
1(1)
1(1)
1(1)
1(1)
1(1)
1(1)
1(1)
1(1)
1(1)
1(1)
1(1)
1(1)
1(1)
1(1)
1(1)
1(1)
1(1)
1(1)
1(1)
1(1)
1(1)
1(1)
1(1)
1(1)
1(1)
1(1)
1(1)
1(1)
1(1)
1(1)
1(1)
1(1)
1(1)
1(1)
1(1)
1(1)
1(1)
1(1)
1(1)
1(1)
1(1)
1(1)
1(1)
1(1)
1(1)
1(1)
1(1)
1(1)
1(1)
1(1)
1(1)
1(1)
1(1)
1(1)
1(1)
1(1)
1(1)
1(1)
1(1)
1(1)
1(1)
1(1)
1(1)
1(1)
1(1)
1(1)
1(1)
1(1)
1(1)
1(1)
)

// edgeNormals

288
(
1(0)
1(1)
1(2)
1(3)
1(4)
1(5)
1(6)
1(7)
1(8)
1(9)
1(10)
1(11)
1(12)
1(13)
1(14)
1(15)
1(16)
1(17)
1(18)
1(19)
1(20)
1(21)
1(22)
1(23)
1(24)
1(25)
1(26)
1(27)
1(28)
1(29)
1(30)
1(31)
1(32)
1(33)
1(34)
1(35)
1(36)
1(37)
1(38)
1(39)
1(40)
1(41)
1(42)
1(43)
1(44)
1(45)
1(46)
1(47)
1(48)
1(49)
1(50)
1(51)
1(52)
1(53)
1(54)
1(55)
1(56)
1(57)
1(58)
1(59)
1(60)
1(61)
1(62)
1(63)
1(64)
1(65)
1(66)
1(67)
1(68)
1(69)
1(70)
1(71)
1(72)
1(73)
1(74)
1(75)
1(76)
1(77)
1(78)
1(79)
1(80)
1(81)
1(82)
1(83)
1(84)
1(85)
1(86)
1(87)
1(88)
1(89)
1(90)
1(91)
1(92)
1(93)
1(94)
1(95)
1(96)
1(97)
1(98)
1(99)
1(100)
1(101)
1(102)
1(103)
1(104)
1(105)
1(106)
1(107)
1(108)
1(109)
1(110)
1(111)
1(112)
1(113)
1(114)
1(115)
1(116)
1(117)
1(118)
1(119)
1(120)
1(121)
1(122)
1(123)
1(124)
1(125)
1(126)
1(127)
1(128)
1(129)
1(130)
1(131)
1(132)
1(133)
1(134)
1(135)
1(136)
1(137)
1(138)
1(139)
1(140)
1(141)
1(142)
1(143)
1(144)
1(145)
1(146)
1(147)
1(148)
1(149)
1(150)
1(151)
1(152)
1(153)
1(154)
1(155)
1(156)
1(157)
1(158)
1(159)
1(160)
1(161)
1(162)
1(163)
1(164)
1(165)
1(166)
1(167)
1(168)
1(169)
1(170)
1(171)
1(172)
1(173)
1(174)
1(175)
1(176)
1(177)
1(178)
1(179)
1(180)
1(181)
1(182)
1(183)
1(184)
1(185)
1(186)
1(187)
1(188)
1(189)
1(190)
1(191)
1(192)
1(193)
1(194)
1(195)
1(196)
1(197)
1(198)
1(199)
1(200)
1(201)
1(202)
1(203)
1(204)
1(205)
1(206)
1(207)
1(208)
1(209)
1(210)
1(211)
1(212)
1(213)
1(214)
1(215)
1(216)
1(217)
1(218)
1(219)
1(220)
1(221)
1(222)
1(223)
1(224)
1(225)
1(226)
1(227)
1(228)
1(229)
1(230)
1(231)
1(232)
1(233)
1(234)
1(235)
1(236)
1(237)
1(238)
1(239)
1(240)
1(241)
1(242)
1(243)
1(244)
1(245)
1(246)
1(246)
1(247)
1(248)
1(249)
1(250)
1(251)
1(252)
1(253)
1(254)
1(255)
1(256)
1(257)
1(258)
1(259)
1(260)
1(261)
1(262)
1(263)
1(264)
1(265)
1(266)
1(267)
1(268)
1(269)
1(270)
1(271)
1(272)
1(273)
1(274)
1(275)
1(276)
1(277)
1(278)
1(279)
1(280)
1(281)
1(282)
1(282)
1(283)
1(284)
1(285)
)

// featurePointNormals

8
(
1(68)
1(202)
2(204 251)
2(238 239)
2(237 238)
1(246)
2(250 251)
1(282)
)

// featurePointEdges

8
(
2(68 70)
2(202 203)
2(204 252)
2(238 239)
2(237 238)
2(246 247)
2(251 252)
2(283 284)
)

// regionEdges

288
(
0
1
2
3
4
5
6
7
8
9
10
11
12
13
14
15
16
17
18
19
20
21
22
23
24
25
26
27
28
29
30
31
32
33
34
35
36
37
38
39
40
41
42
43
44
45
46
47
48
49
50
51
52
53
54
55
56
57
58
59
60
61
62
63
64
65
66
67
68
69
70
71
72
73
74
75
76
77
78
79
80
81
82
83
84
85
86
87
88
89
90
91
92
93
94
95
96
97
98
99
100
101
102
103
104
105
106
107
108
109
110
111
112
113
114
115
116
117
118
119
120
121
122
123
124
125
126
127
128
129
130
131
132
133
134
135
136
137
138
139
140
141
142
143
144
145
146
147
148
149
150
151
152
153
154
155
156
157
158
159
160
161
162
163
164
165
166
167
168
169
170
171
172
173
174
175
176
177
178
179
180
181
182
183
184
185
186
187
188
189
190
191
192
193
194
195
196
197
198
199
200
201
202
203
204
205
206
207
208
209
210
211
212
213
214
215
216
217
218
219
220
221
222
223
224
225
226
227
228
229
230
231
232
233
234
235
236
237
238
239
240
241
242
243
244
245
246
247
248
249
250
251
252
253
254
255
256
257
258
259
260
261
262
263
264
265
266
267
268
269
270
271
272
273
274
275
276
277
278
279
280
281
282
283
284
285
286
287
)



// ************************************************************************* //
