/*--------------------------------*- C++ -*----------------------------------*\
  =========                 |
  \\      /  F ield         | OpenFOAM: The Open Source CFD Toolbox
   \\    /   O peration     | Website:  https://openfoam.org
    \\  /    A nd           | Version:  12
     \\/     M anipulation  |
\*---------------------------------------------------------------------------*/
FoamFile
{
    format      ascii;
    class       extendedFeatureEdgeMesh;
    location    "constant/extendedFeatureEdgeMesh";
    object      janela_6-fachada_1-Zona_1.001.extendedFeatureEdgeMesh;
}
// * * * * * * * * * * * * * * * * * * * * * * * * * * * * * * * * * * * * * //

// points

20
(
(-2.39721 -5.2533 0)
(3.38721 -5.2533 0)
(3.38721 -5.2533 4.15977)
(-2.39721 -5.2533 4.15977)
(3.38721 5.92831 0)
(3.38721 5.92831 4.15977)
(-2.39721 5.92831 0)
(-2.39721 5.92831 4.15977)
(-2.39721 -2.16634 3.21885)
(-2.39721 -2.16634 2.91885)
(-2.39721 -3.16634 2.91885)
(-2.39721 -3.16634 3.21885)
(3.38721 1.39538 3.00823)
(3.38721 1.39538 2.00823)
(3.38721 2.39538 2.00823)
(3.38721 2.39538 3.00823)
(3.38721 -3.35294 2.60734)
(3.38721 -3.35294 0.507338)
(3.38721 -2.35294 0.507338)
(3.38721 -2.35294 2.60734)
)

// edges

24
(
(1 2)
(0 1)
(3 0)
(2 3)
(4 5)
(1 4)
(5 2)
(6 7)
(4 6)
(7 5)
(6 0)
(3 7)
(8 9)
(9 10)
(10 11)
(11 8)
(12 13)
(13 14)
(14 15)
(15 12)
(16 17)
(17 18)
(18 19)
(19 16)
)

// concaveStart mixedStart nonFeatureStart
8 8 20
// internalStart flatStart openStart multipleStart
12 12 12 24
// normals

18
(
(-1 0 -0)
(-1 -0 0)
(1 0 0)
(1 -0 0)
(1 0 0)
(1 -0 0)
(0 -1 0)
(1 0 0)
(0 0 -1)
(0 -1 0)
(-1 0 0)
(0 0 1)
(1 0 0)
(0 1 -0)
(0 0 -1)
(0 1 0)
(-1 0 0)
(0 0 1)
)

// normal volume types

18
(
0
0
0
0
0
0
0
0
0
0
0
0
0
0
0
0
0
0
)

// normalDirections

24
(
2(1 -1)
2(1 -1)
2(1 -1)
2(1 -1)
2(1 -1)
2(1 -1)
2(1 -1)
2(1 -1)
2(1 -1)
2(1 -1)
2(1 -1)
2(1 -1)
1(1)
1(1)
1(1)
1(1)
1(1)
1(1)
1(1)
1(1)
1(1)
1(1)
1(1)
1(1)
)

// edgeNormals

24
(
2(6 7)
2(6 8)
2(9 10)
2(9 11)
2(12 13)
2(12 14)
2(7 11)
2(15 16)
2(15 14)
2(13 17)
2(10 8)
2(16 17)
1(0)
1(0)
1(1)
1(1)
1(2)
1(2)
1(3)
1(3)
1(4)
1(4)
1(5)
1(5)
)

// featurePointNormals

20
(
3(6 8 10)
3(6 7 8)
3(6 7 11)
3(9 10 11)
3(12 13 14)
3(12 13 11)
3(15 16 14)
3(15 16 17)
1(0)
1(0)
1(0)
1(1)
1(2)
1(2)
1(2)
1(3)
1(4)
1(4)
1(4)
1(5)
)

// featurePointEdges

20
(
3(2 10 1)
3(0 5 1)
3(3 6 0)
3(2 11 3)
3(4 8 5)
3(6 9 4)
3(7 10 8)
3(9 11 7)
2(12 15)
2(12 13)
2(13 14)
2(14 15)
2(16 19)
2(16 17)
2(17 18)
2(18 19)
2(20 23)
2(20 21)
2(21 22)
2(22 23)
)

// regionEdges

12
(
12
13
14
15
16
17
18
19
20
21
22
23
)



// ************************************************************************* //
