/*--------------------------------*- C++ -*----------------------------------*\
  =========                 |
  \\      /  F ield         | OpenFOAM: The Open Source CFD Toolbox
   \\    /   O peration     | Website:  https://openfoam.org
    \\  /    A nd           | Version:  12
     \\/     M anipulation  |
\*---------------------------------------------------------------------------*/
FoamFile
{
    format      ascii;
    class       extendedFeatureEdgeMesh;
    location    "constant/extendedFeatureEdgeMesh";
    object      janela_7-fachada_1-Zona_1.extendedFeatureEdgeMesh;
}
// * * * * * * * * * * * * * * * * * * * * * * * * * * * * * * * * * * * * * //

// points

14
(
(-2.50463 -5.38451 0)
(5.19944 -5.38451 0)
(5.19944 -5.38451 5)
(-2.50463 -5.38451 5)
(5.19944 6.4967 5)
(5.19944 6.4967 0)
(-2.50463 6.4967 0)
(-2.50463 6.4967 5)
(5.19944 -1.897 1.04543)
(5.19944 -1.897 1.467658)
(5.19944 -0.896997 1.888492)
(5.19944 -0.896997 1.04543)
(5.19944 -0.896997 3.14543)
(5.19944 -1.897 3.14543)
)

// edges

18
(
(1 2)
(0 1)
(3 0)
(2 3)
(4 2)
(1 5)
(5 4)
(6 7)
(5 6)
(7 4)
(6 0)
(3 7)
(8 9)
(10 11)
(12 10)
(9 13)
(13 8)
(11 12)
)

// concaveStart mixedStart nonFeatureStart
8 8 8
// internalStart flatStart openStart multipleStart
12 12 12 18
// normals

20
(
(1 0 -0)
(1 0 0)
(1 0 0)
(1 0 -0)
(1 0 0)
(1 -0 0)
(0 -1 0)
(1 0 0)
(0 0 -1)
(0 -1 0)
(-1 0 0)
(0 0 1)
(1 0 0)
(1 0 0)
(0 0 -1)
(1 0 -0)
(0 1 -0)
(0 1 0)
(-1 0 0)
(0 0 1)
)

// normal volume types

20
(
0
0
0
0
0
0
0
0
0
0
0
0
0
0
0
0
0
0
0
0
)

// normalDirections

18
(
2(1 -1)
2(1 -1)
2(1 -1)
2(1 -1)
2(1 -1)
2(1 -1)
2(1 -1)
2(1 -1)
2(1 -1)
2(1 -1)
2(1 -1)
2(1 -1)
1(1)
1(1)
1(1)
1(1)
1(1)
1(1)
)

// edgeNormals

18
(
2(6 7)
2(6 8)
2(9 10)
2(9 11)
2(12 11)
2(13 14)
2(15 16)
2(17 18)
2(17 14)
2(16 19)
2(10 8)
2(18 19)
1(0)
1(1)
1(2)
1(3)
1(4)
1(5)
)

// featurePointNormals

8
(
3(6 8 10)
3(6 7 8)
3(6 7 11)
3(9 10 11)
3(12 11 16)
3(13 14 16)
3(17 18 14)
3(17 18 19)
)

// featurePointEdges

8
(
3(2 10 1)
3(0 5 1)
3(3 4 0)
3(2 11 3)
3(6 9 4)
3(6 8 5)
3(7 10 8)
3(9 11 7)
)

// regionEdges
6(12 13 14 15 16 17)


// ************************************************************************* //
