/*--------------------------------*- C++ -*----------------------------------*\
  =========                 |
  \\      /  F ield         | OpenFOAM: The Open Source CFD Toolbox
   \\    /   O peration     | Website:  https://openfoam.org
    \\  /    A nd           | Version:  11
     \\/     M anipulation  |
\*---------------------------------------------------------------------------*/
FoamFile
{
    format      ascii;
    class       extendedFeatureEdgeMesh;
    location    "constant/extendedFeatureEdgeMesh";
    object      Outlet2.extendedFeatureEdgeMesh;
}
// * * * * * * * * * * * * * * * * * * * * * * * * * * * * * * * * * * * * * //

// points

649
(
(650.464 187.299 811.901)
(650.679 187.275 811.445)
(642.904 184.25 825.549)
(643.285 184.055 825.868)
(643.486 184.419 825.567)
(658.125 179.084 793.267)
(656.187 184.933 799.16)
(653.184 185.88 805.761)
(653.08 186.381 806.143)
(653.433 186.685 805.527)
(652.806 186.868 806.891)
(652.497 186.595 807.431)
(652.384 186.974 807.801)
(649.678 187.426 811.118)
(636.872 55.677 798.019)
(637.071 55.9161 797.668)
(636.643 55.594 798.445)
(637.268 56.1808 797.335)
(636.412 55.5084 798.869)
(636.179 55.4207 799.291)
(637.463 56.4635 797.016)
(635.945 55.3308 799.712)
(637.657 56.7555 796.705)
(635.735 55.2714 800.145)
(637.868 57.078 796.371)
(635.527 55.226 800.579)
(638.077 57.4049 796.041)
(635.301 55.1842 801.05)
(638.286 57.7361 795.715)
(635.075 55.1476 801.521)
(638.493 58.0715 795.392)
(634.849 55.1158 801.992)
(638.698 58.4111 795.073)
(634.623 55.0888 802.463)
(638.903 58.7548 794.758)
(634.397 55.0662 802.935)
(634.171 55.0479 803.407)
(639.107 59.1026 794.446)
(633.945 55.0337 803.878)
(639.309 59.4543 794.138)
(633.719 55.0234 804.351)
(639.51 59.81 793.834)
(633.493 55.0168 804.823)
(639.71 60.1696 793.534)
(633.267 55.0139 805.295)
(639.909 60.533 793.237)
(633.095 55.0139 805.656)
(640.106 60.9002 792.944)
(632.922 55.0153 806.016)
(632.702 55.0197 806.477)
(640.302 61.2711 792.655)
(632.482 55.0276 806.937)
(640.497 61.6457 792.37)
(640.691 62.0239 792.089)
(632.262 55.0389 807.397)
(632.043 55.0536 807.858)
(640.883 62.4057 791.812)
(631.824 55.0715 808.319)
(641.073 62.791 791.538)
(631.606 55.0927 808.78)
(641.263 63.1799 791.27)
(631.388 55.117 809.24)
(631.171 55.1446 809.701)
(641.449 63.5755 791.01)
(630.954 55.1752 810.162)
(641.631 63.9807 790.761)
(630.738 55.209 810.623)
(641.807 64.3976 790.528)
(630.522 55.2459 811.084)
(641.976 64.8277 790.315)
(630.307 55.2859 811.545)
(630.092 55.329 812.006)
(642.139 65.2795 790.121)
(629.877 55.3753 812.467)
(642.292 65.745 789.953)
(629.664 55.4248 812.927)
(629.45 55.4775 813.388)
(642.434 66.2232 789.813)
(642.563 66.712 789.7)
(629.237 55.5334 813.849)
(629.025 55.5927 814.309)
(628.814 55.6553 814.769)
(642.681 67.209 789.614)
(628.603 55.7212 815.229)
(628.41 55.7841 815.649)
(642.789 67.7121 789.553)
(628.216 55.8494 816.071)
(628.015 55.9198 816.508)
(642.886 68.2192 789.512)
(627.815 55.9932 816.944)
(642.976 68.7288 789.488)
(627.615 56.0698 817.381)
(627.415 56.1496 817.816)
(643.061 69.2397 789.475)
(627.216 56.2328 818.252)
(627.017 56.3196 818.687)
(643.143 69.7513 789.468)
(626.819 56.4101 819.121)
(626.621 56.5045 819.555)
(643.222 70.2489 789.462)
(626.423 56.6029 819.987)
(643.301 70.7465 789.457)
(626.226 56.7054 820.42)
(626.029 56.8122 820.851)
(643.38 71.2441 789.452)
(625.812 56.9398 821.33)
(643.459 71.7418 789.446)
(625.599 57.0874 821.805)
(625.44 57.2518 822.244)
(643.538 72.2394 789.441)
(625.278 57.4074 822.685)
(643.617 72.7371 789.436)
(625.113 57.5543 823.128)
(624.94 57.6915 823.572)
(643.696 73.2347 789.431)
(624.813 57.9873 823.943)
(643.775 73.7324 789.426)
(624.701 58.314 824.293)
(643.854 74.23 789.42)
(624.601 58.6658 824.622)
(643.933 74.7277 789.416)
(624.51 59.0363 824.932)
(644.011 75.2253 789.411)
(624.426 59.4189 825.23)
(644.09 75.723 789.406)
(624.341 59.8231 825.535)
(644.169 76.2206 789.401)
(624.259 60.2307 825.837)
(644.248 76.7183 789.396)
(624.178 60.6417 826.135)
(644.327 77.216 789.391)
(644.405 77.7137 789.387)
(624.101 61.0558 826.429)
(644.484 78.2114 789.382)
(624.025 61.4732 826.719)
(644.563 78.7091 789.378)
(623.952 61.8937 827.005)
(644.641 79.2067 789.373)
(623.881 62.3174 827.287)
(644.72 79.7044 789.369)
(623.813 62.744 827.565)
(644.799 80.2021 789.365)
(623.746 63.1737 827.839)
(644.877 80.6999 789.36)
(623.683 63.6063 828.108)
(644.956 81.1976 789.356)
(623.622 64.0417 828.374)
(645.034 81.6953 789.352)
(623.563 64.4799 828.636)
(645.113 82.193 789.348)
(645.191 82.6907 789.344)
(623.506 64.9209 828.893)
(645.27 83.1885 789.34)
(623.452 65.3646 829.147)
(645.348 83.6862 789.336)
(623.401 65.811 829.396)
(645.427 84.1839 789.332)
(623.352 66.2599 829.641)
(645.505 84.6817 789.328)
(623.305 66.7114 829.882)
(645.583 85.1794 789.324)
(623.267 67.1025 830.085)
(645.662 85.6771 789.32)
(623.233 67.4973 830.282)
(645.74 86.1749 789.317)
(623.204 67.8974 830.469)
(645.818 86.6727 789.313)
(623.183 68.3038 830.643)
(645.897 87.1704 789.31)
(623.17 68.7575 830.815)
(645.975 87.6682 789.306)
(623.169 69.2191 830.966)
(646.053 88.166 789.303)
(623.181 69.6876 831.093)
(646.131 88.6637 789.299)
(623.205 70.1616 831.195)
(646.21 89.1615 789.296)
(623.241 70.6394 831.274)
(646.288 89.6593 789.293)
(623.288 71.1193 831.331)
(646.366 90.1571 789.29)
(623.344 71.6002 831.369)
(646.444 90.6549 789.287)
(623.407 72.0811 831.391)
(646.522 91.1527 789.284)
(623.476 72.5617 831.404)
(646.6 91.6505 789.281)
(623.546 73.0421 831.41)
(646.678 92.1483 789.278)
(623.62 73.5377 831.416)
(646.756 92.6461 789.275)
(623.693 74.0332 831.422)
(646.834 93.1439 789.272)
(623.767 74.5288 831.427)
(646.912 93.6417 789.269)
(623.841 75.0244 831.433)
(646.99 94.1395 789.266)
(623.914 75.52 831.438)
(647.068 94.6374 789.263)
(623.988 76.0155 831.443)
(647.146 95.1348 789.261)
(624.062 76.5111 831.449)
(647.224 95.6323 789.258)
(624.135 77.0066 831.454)
(647.301 96.1298 789.256)
(624.209 77.5022 831.459)
(647.379 96.6273 789.253)
(624.283 77.9977 831.465)
(647.457 97.1248 789.251)
(624.356 78.4933 831.47)
(647.534 97.6223 789.248)
(624.43 78.9889 831.475)
(647.612 98.1197 789.246)
(624.504 79.4844 831.48)
(647.69 98.6172 789.244)
(624.578 79.9799 831.485)
(647.768 99.1147 789.242)
(624.652 80.4755 831.49)
(647.845 99.6122 789.24)
(624.726 80.971 831.494)
(647.923 100.11 789.237)
(624.799 81.4665 831.499)
(648 100.607 789.235)
(624.873 81.9621 831.504)
(648.078 101.105 789.234)
(624.947 82.4576 831.508)
(648.155 101.602 789.232)
(625.021 82.9531 831.513)
(648.233 102.1 789.23)
(625.095 83.4486 831.517)
(648.31 102.597 789.228)
(625.169 83.9442 831.522)
(648.388 103.095 789.226)
(625.244 84.4397 831.526)
(648.465 103.592 789.224)
(625.318 84.9352 831.531)
(648.542 104.09 789.223)
(625.392 85.4307 831.535)
(648.62 104.588 789.221)
(625.466 85.9262 831.539)
(648.697 105.085 789.22)
(625.54 86.4217 831.543)
(648.774 105.583 789.218)
(625.614 86.9172 831.547)
(648.852 106.08 789.217)
(625.688 87.4127 831.551)
(648.929 106.578 789.215)
(625.763 87.9082 831.555)
(649.006 107.075 789.214)
(625.837 88.4036 831.559)
(649.083 107.573 789.213)
(625.911 88.8991 831.563)
(649.16 108.071 789.211)
(625.985 89.3946 831.567)
(649.237 108.568 789.21)
(626.06 89.8901 831.57)
(649.315 109.066 789.209)
(626.134 90.3856 831.574)
(649.392 109.563 789.208)
(626.209 90.881 831.578)
(649.469 110.061 789.207)
(626.283 91.3765 831.581)
(649.546 110.558 789.206)
(626.357 91.872 831.585)
(649.623 111.056 789.205)
(626.432 92.3674 831.588)
(649.7 111.554 789.205)
(626.506 92.8629 831.592)
(649.777 112.051 789.204)
(626.581 93.3583 831.595)
(649.854 112.549 789.203)
(626.655 93.8538 831.598)
(649.93 113.047 789.202)
(626.73 94.3492 831.602)
(650.007 113.544 789.202)
(626.805 94.8447 831.605)
(650.084 114.042 789.201)
(626.879 95.3401 831.608)
(650.161 114.539 789.201)
(626.954 95.8355 831.611)
(650.238 115.037 789.2)
(627.029 96.331 831.614)
(650.314 115.535 789.2)
(627.103 96.8264 831.617)
(650.391 116.032 789.2)
(627.178 97.3218 831.62)
(650.468 116.53 789.199)
(627.253 97.8172 831.623)
(650.544 117.028 789.199)
(627.327 98.3123 831.625)
(650.621 117.525 789.199)
(627.402 98.8073 831.628)
(650.698 118.023 789.199)
(627.477 99.3023 831.631)
(650.774 118.521 789.199)
(627.552 99.7973 831.633)
(650.851 119.018 789.199)
(627.627 100.292 831.636)
(650.927 119.516 789.199)
(627.701 100.787 831.639)
(651.003 120.009 789.199)
(627.776 101.282 831.641)
(651.079 120.502 789.199)
(627.851 101.777 831.643)
(651.154 120.995 789.2)
(627.926 102.272 831.646)
(651.23 121.488 789.2)
(628.001 102.767 831.648)
(651.305 121.981 789.2)
(628.076 103.262 831.65)
(651.381 122.474 789.201)
(628.151 103.757 831.653)
(651.457 122.966 789.201)
(628.226 104.252 831.655)
(651.532 123.46 789.202)
(628.301 104.747 831.657)
(651.608 123.952 789.202)
(628.376 105.242 831.659)
(651.683 124.445 789.203)
(628.451 105.737 831.661)
(651.758 124.938 789.204)
(628.526 106.232 831.662)
(651.834 125.431 789.205)
(628.602 106.727 831.664)
(651.909 125.924 789.206)
(628.677 107.222 831.666)
(651.984 126.417 789.206)
(628.752 107.717 831.668)
(652.06 126.91 789.207)
(628.827 108.212 831.67)
(652.135 127.403 789.208)
(628.903 108.707 831.671)
(652.21 127.896 789.209)
(628.978 109.202 831.673)
(652.286 128.389 789.211)
(629.053 109.697 831.674)
(652.361 128.882 789.212)
(629.128 110.192 831.676)
(652.436 129.375 789.213)
(629.204 110.687 831.677)
(652.511 129.868 789.214)
(629.279 111.182 831.679)
(652.586 130.361 789.216)
(629.355 111.676 831.68)
(652.661 130.855 789.217)
(629.43 112.172 831.681)
(652.736 131.348 789.218)
(629.506 112.666 831.682)
(652.811 131.84 789.22)
(629.581 113.161 831.683)
(652.886 132.334 789.221)
(629.657 113.656 831.685)
(652.961 132.827 789.223)
(629.732 114.151 831.686)
(653.036 133.32 789.225)
(629.808 114.646 831.687)
(653.111 133.813 789.227)
(629.883 115.141 831.688)
(653.186 134.306 789.228)
(629.959 115.636 831.688)
(653.261 134.799 789.23)
(630.035 116.131 831.689)
(653.336 135.292 789.232)
(630.11 116.626 831.69)
(653.411 135.785 789.234)
(630.186 117.12 831.691)
(653.485 136.278 789.236)
(630.262 117.615 831.692)
(653.56 136.771 789.238)
(630.338 118.11 831.692)
(653.635 137.264 789.24)
(630.414 118.605 831.693)
(653.71 137.757 789.242)
(630.489 119.1 831.693)
(653.784 138.25 789.244)
(630.565 119.595 831.694)
(653.859 138.743 789.247)
(630.641 120.09 831.694)
(653.934 139.236 789.249)
(630.717 120.585 831.695)
(654.008 139.73 789.251)
(630.793 121.079 831.695)
(654.083 140.223 789.254)
(630.869 121.574 831.695)
(654.158 140.716 789.256)
(630.945 122.069 831.695)
(654.232 141.209 789.259)
(631.021 122.564 831.695)
(654.307 141.702 789.261)
(631.097 123.059 831.695)
(654.381 142.195 789.264)
(631.173 123.554 831.695)
(654.456 142.688 789.266)
(631.249 124.049 831.695)
(654.53 143.181 789.269)
(631.325 124.544 831.695)
(654.605 143.674 789.272)
(631.402 125.039 831.695)
(654.679 144.168 789.275)
(631.478 125.534 831.695)
(654.753 144.661 789.278)
(631.554 126.029 831.695)
(654.828 145.154 789.281)
(631.63 126.524 831.695)
(654.902 145.647 789.284)
(631.707 127.019 831.694)
(654.976 146.14 789.287)
(631.783 127.514 831.694)
(655.051 146.633 789.29)
(631.859 128.009 831.694)
(655.125 147.126 789.293)
(631.936 128.504 831.693)
(655.199 147.62 789.296)
(632.012 128.999 831.693)
(655.273 148.113 789.299)
(632.089 129.494 831.692)
(655.347 148.606 789.303)
(632.165 129.989 831.691)
(655.422 149.099 789.306)
(632.241 130.484 831.691)
(655.496 149.592 789.31)
(632.318 130.979 831.69)
(655.57 150.085 789.313)
(632.394 131.474 831.689)
(655.644 150.579 789.317)
(632.471 131.969 831.688)
(655.718 151.072 789.32)
(632.548 132.464 831.687)
(655.792 151.565 789.324)
(632.624 132.959 831.686)
(655.866 152.058 789.328)
(632.701 133.454 831.685)
(655.94 152.551 789.331)
(632.778 133.949 831.684)
(656.014 153.044 789.335)
(632.854 134.444 831.683)
(656.088 153.538 789.339)
(632.931 134.939 831.682)
(656.162 154.031 789.343)
(633.008 135.434 831.681)
(656.236 154.524 789.347)
(633.084 135.928 831.679)
(656.31 155.017 789.351)
(633.161 136.423 831.678)
(656.383 155.51 789.355)
(633.238 136.918 831.677)
(656.457 156.004 789.36)
(633.315 137.413 831.675)
(656.531 156.497 789.364)
(633.392 137.908 831.674)
(656.605 156.99 789.368)
(633.469 138.403 831.672)
(656.679 157.483 789.372)
(633.546 138.898 831.671)
(656.752 157.976 789.377)
(633.623 139.393 831.669)
(656.826 158.47 789.381)
(633.7 139.888 831.667)
(656.9 158.963 789.386)
(633.777 140.383 831.666)
(656.973 159.456 789.39)
(633.854 140.878 831.664)
(657.047 159.949 789.395)
(633.931 141.372 831.662)
(657.121 160.443 789.4)
(634.008 141.867 831.66)
(657.194 160.936 789.404)
(634.085 142.362 831.658)
(657.268 161.429 789.409)
(634.162 142.857 831.656)
(657.341 161.922 789.414)
(634.239 143.352 831.654)
(657.415 162.415 789.419)
(634.317 143.847 831.652)
(657.488 162.909 789.424)
(634.394 144.342 831.649)
(657.562 163.402 789.429)
(634.471 144.836 831.647)
(657.635 163.895 789.434)
(634.548 145.331 831.645)
(657.709 164.389 789.439)
(634.625 145.826 831.643)
(657.782 164.882 789.444)
(634.703 146.321 831.64)
(657.855 165.375 789.45)
(634.78 146.816 831.638)
(657.929 165.868 789.455)
(634.858 147.311 831.635)
(658.002 166.361 789.46)
(634.935 147.805 831.633)
(658.076 166.855 789.466)
(635.012 148.3 831.63)
(658.149 167.348 789.471)
(635.09 148.795 831.627)
(658.222 167.841 789.477)
(635.167 149.29 831.624)
(658.295 168.335 789.482)
(635.245 149.785 831.622)
(658.369 168.828 789.488)
(635.322 150.279 831.619)
(658.442 169.321 789.494)
(635.4 150.774 831.616)
(658.517 169.831 789.5)
(635.477 151.269 831.613)
(658.589 170.34 789.513)
(635.555 151.764 831.61)
(658.656 170.851 789.538)
(635.633 152.259 831.607)
(658.715 171.361 789.578)
(635.71 152.753 831.604)
(658.764 171.87 789.639)
(635.788 153.248 831.6)
(658.801 172.377 789.723)
(635.866 153.743 831.597)
(658.824 172.879 789.834)
(635.944 154.238 831.594)
(658.833 173.375 789.973)
(636.021 154.733 831.59)
(658.828 173.863 790.139)
(636.099 155.227 831.587)
(636.177 155.722 831.583)
(658.809 174.34 790.331)
(636.255 156.217 831.58)
(658.777 174.807 790.545)
(636.333 156.711 831.576)
(658.734 175.264 790.781)
(636.411 157.206 831.573)
(658.682 175.71 791.032)
(636.488 157.701 831.569)
(658.622 176.149 791.295)
(636.566 158.196 831.565)
(658.558 176.581 791.567)
(636.644 158.691 831.561)
(658.491 177.006 791.841)
(636.722 159.185 831.557)
(658.423 177.428 792.118)
(636.8 159.68 831.554)
(636.878 160.175 831.549)
(658.352 177.846 792.4)
(636.956 160.669 831.545)
(658.278 178.262 792.685)
(637.034 161.164 831.541)
(658.203 178.675 792.974)
(637.113 161.659 831.537)
(657.836 179.382 793.924)
(637.191 162.154 831.533)
(657.661 180.078 794.511)
(637.269 162.648 831.529)
(637.347 163.143 831.524)
(637.425 163.637 831.52)
(657.507 180.592 794.998)
(637.504 164.132 831.515)
(637.582 164.627 831.511)
(657.339 181.471 795.631)
(657.139 182.144 796.267)
(637.66 165.122 831.506)
(637.738 165.616 831.502)
(637.817 166.111 831.497)
(637.895 166.605 831.492)
(657.116 182.613 796.465)
(637.974 167.1 831.487)
(638.052 167.595 831.482)
(656.886 183.31 797.171)
(638.13 168.089 831.477)
(638.209 168.584 831.472)
(656.578 184.116 798.076)
(638.287 169.079 831.467)
(655.993 184.938 799.568)
(656.434 184.455 798.487)
(656.288 184.7 798.873)
(638.366 169.573 831.462)
(638.444 170.068 831.457)
(638.523 170.563 831.451)
(638.602 171.057 831.446)
(655.784 185.161 800.078)
(655.32 185.47 801.151)
(638.68 171.552 831.441)
(654.937 185.669 802.019)
(638.759 172.046 831.435)
(638.839 172.551 831.428)
(654.581 185.776 802.8)
(654.255 185.874 803.515)
(638.923 173.052 831.415)
(639.012 173.553 831.39)
(653.945 186.082 804.233)
(653.692 186.127 804.778)
(639.109 174.052 831.347)
(653.474 186.072 805.217)
(639.215 174.546 831.283)
(639.332 175.034 831.194)
(639.461 175.513 831.079)
(639.601 175.982 830.936)
(639.752 176.439 830.768)
(639.911 176.883 830.578)
(652.173 187.022 808.257)
(651.961 187.068 808.712)
(640.079 177.317 830.368)
(651.748 187.11 809.168)
(640.252 177.74 830.144)
(651.536 187.149 809.623)
(651.322 187.185 810.079)
(640.429 178.157 829.91)
(640.609 178.574 829.669)
(651.108 187.218 810.534)
(650.894 187.248 810.99)
(640.791 178.988 829.424)
(640.974 179.398 829.175)
(641.159 179.805 828.922)
(650.249 187.32 812.356)
(650.033 187.337 812.812)
(641.345 180.209 828.665)
(649.816 187.352 813.267)
(641.532 180.609 828.404)
(649.599 187.364 813.722)
(641.722 181.007 828.138)
(649.382 187.372 814.177)
(641.912 181.4 827.869)
(649.164 187.377 814.632)
(648.946 187.378 815.087)
(642.104 181.79 827.595)
(648.727 187.376 815.541)
(642.298 182.177 827.317)
(648.508 187.371 815.995)
(642.492 182.56 827.035)
(648.289 187.362 816.449)
(648.068 187.349 816.903)
(642.689 182.939 826.749)
(647.848 187.332 817.356)
(642.886 183.315 826.46)
(647.627 187.311 817.808)
(643.085 183.687 826.166)
(647.405 187.286 818.261)
(647.183 187.257 818.713)
(646.96 187.223 819.164)
(646.737 187.184 819.614)
(643.688 184.779 825.261)
(646.513 187.14 820.064)
(646.289 187.091 820.513)
(643.888 185.127 824.956)
(646.064 187.036 820.961)
(644.091 185.462 824.638)
(645.839 186.975 821.409)
(645.614 186.899 821.854)
(644.298 185.775 824.301)
(644.51 186.058 823.94)
(645.389 186.801 822.295)
(644.725 186.304 823.556)
(645.166 186.673 822.729)
(644.944 186.509 823.151)
)

// edges

651
(
(0 1)
(3 4)
(13 0)
(1 13)
(2 3)
(4 2)
(14 15)
(16 14)
(15 17)
(18 16)
(19 18)
(17 20)
(21 19)
(20 22)
(23 21)
(22 24)
(25 23)
(24 26)
(27 25)
(26 28)
(29 27)
(28 30)
(31 29)
(30 32)
(33 31)
(32 34)
(35 33)
(36 35)
(34 37)
(38 36)
(37 39)
(40 38)
(39 41)
(42 40)
(41 43)
(44 42)
(43 45)
(46 44)
(45 47)
(48 46)
(49 48)
(47 50)
(51 49)
(50 52)
(52 53)
(54 51)
(55 54)
(53 56)
(57 55)
(56 58)
(59 57)
(58 60)
(61 59)
(62 61)
(60 63)
(64 62)
(63 65)
(66 64)
(65 67)
(68 66)
(67 69)
(70 68)
(71 70)
(69 72)
(73 71)
(72 74)
(75 73)
(76 75)
(74 77)
(77 78)
(79 76)
(80 79)
(81 80)
(78 82)
(83 81)
(84 83)
(82 85)
(86 84)
(87 86)
(85 88)
(89 87)
(88 90)
(91 89)
(92 91)
(90 93)
(94 92)
(95 94)
(93 96)
(97 95)
(98 97)
(96 99)
(100 98)
(99 101)
(102 100)
(103 102)
(101 104)
(105 103)
(104 106)
(107 105)
(108 107)
(106 109)
(110 108)
(109 111)
(112 110)
(113 112)
(111 114)
(115 113)
(114 116)
(117 115)
(116 118)
(119 117)
(118 120)
(121 119)
(120 122)
(123 121)
(122 124)
(125 123)
(124 126)
(127 125)
(126 128)
(129 127)
(128 130)
(130 131)
(132 129)
(131 133)
(134 132)
(133 135)
(136 134)
(135 137)
(138 136)
(137 139)
(140 138)
(139 141)
(142 140)
(141 143)
(144 142)
(143 145)
(146 144)
(145 147)
(148 146)
(147 149)
(149 150)
(151 148)
(150 152)
(153 151)
(152 154)
(155 153)
(154 156)
(157 155)
(156 158)
(159 157)
(158 160)
(161 159)
(160 162)
(163 161)
(162 164)
(165 163)
(164 166)
(167 165)
(166 168)
(169 167)
(168 170)
(171 169)
(170 172)
(173 171)
(172 174)
(175 173)
(174 176)
(177 175)
(176 178)
(179 177)
(178 180)
(181 179)
(180 182)
(183 181)
(182 184)
(185 183)
(184 186)
(187 185)
(186 188)
(189 187)
(188 190)
(191 189)
(190 192)
(193 191)
(192 194)
(195 193)
(194 196)
(197 195)
(196 198)
(199 197)
(198 200)
(201 199)
(200 202)
(203 201)
(202 204)
(205 203)
(204 206)
(207 205)
(206 208)
(209 207)
(208 210)
(211 209)
(210 212)
(213 211)
(212 214)
(215 213)
(214 216)
(217 215)
(216 218)
(219 217)
(218 220)
(221 219)
(220 222)
(223 221)
(222 224)
(225 223)
(224 226)
(227 225)
(226 228)
(229 227)
(228 230)
(231 229)
(230 232)
(233 231)
(232 234)
(235 233)
(234 236)
(237 235)
(236 238)
(239 237)
(238 240)
(241 239)
(240 242)
(243 241)
(242 244)
(245 243)
(244 246)
(247 245)
(246 248)
(249 247)
(248 250)
(251 249)
(250 252)
(253 251)
(252 254)
(255 253)
(254 256)
(257 255)
(256 258)
(259 257)
(258 260)
(261 259)
(260 262)
(263 261)
(262 264)
(265 263)
(264 266)
(267 265)
(266 268)
(269 267)
(268 270)
(271 269)
(270 272)
(273 271)
(272 274)
(275 273)
(274 276)
(277 275)
(276 278)
(279 277)
(278 280)
(281 279)
(280 282)
(283 281)
(282 284)
(285 283)
(284 286)
(287 285)
(286 288)
(289 287)
(288 290)
(291 289)
(290 292)
(293 291)
(292 294)
(295 293)
(294 296)
(297 295)
(296 298)
(299 297)
(298 300)
(301 299)
(300 302)
(303 301)
(302 304)
(305 303)
(304 306)
(307 305)
(306 308)
(309 307)
(308 310)
(311 309)
(310 312)
(313 311)
(312 314)
(315 313)
(314 316)
(317 315)
(316 318)
(319 317)
(318 320)
(321 319)
(320 322)
(323 321)
(322 324)
(325 323)
(324 326)
(327 325)
(326 328)
(329 327)
(328 330)
(331 329)
(330 332)
(333 331)
(332 334)
(335 333)
(334 336)
(337 335)
(336 338)
(339 337)
(338 340)
(341 339)
(340 342)
(343 341)
(342 344)
(345 343)
(344 346)
(347 345)
(346 348)
(349 347)
(348 350)
(351 349)
(350 352)
(353 351)
(352 354)
(355 353)
(354 356)
(357 355)
(356 358)
(359 357)
(358 360)
(361 359)
(360 362)
(363 361)
(362 364)
(365 363)
(364 366)
(367 365)
(366 368)
(369 367)
(368 370)
(371 369)
(370 372)
(373 371)
(372 374)
(375 373)
(374 376)
(377 375)
(376 378)
(379 377)
(378 380)
(381 379)
(380 382)
(383 381)
(382 384)
(385 383)
(384 386)
(387 385)
(386 388)
(389 387)
(388 390)
(391 389)
(390 392)
(393 391)
(392 394)
(395 393)
(394 396)
(397 395)
(396 398)
(399 397)
(398 400)
(401 399)
(400 402)
(403 401)
(402 404)
(405 403)
(404 406)
(407 405)
(406 408)
(409 407)
(408 410)
(411 409)
(410 412)
(413 411)
(412 414)
(415 413)
(414 416)
(417 415)
(416 418)
(419 417)
(418 420)
(421 419)
(420 422)
(423 421)
(422 424)
(425 423)
(424 426)
(427 425)
(426 428)
(429 427)
(428 430)
(431 429)
(430 432)
(433 431)
(432 434)
(435 433)
(434 436)
(437 435)
(436 438)
(439 437)
(438 440)
(441 439)
(440 442)
(443 441)
(442 444)
(445 443)
(444 446)
(447 445)
(446 448)
(449 447)
(448 450)
(451 449)
(450 452)
(453 451)
(452 454)
(455 453)
(454 456)
(457 455)
(456 458)
(459 457)
(458 460)
(461 459)
(460 462)
(463 461)
(462 464)
(465 463)
(464 466)
(467 465)
(466 468)
(469 467)
(468 470)
(471 469)
(470 472)
(473 471)
(472 474)
(475 473)
(474 476)
(477 475)
(476 478)
(479 477)
(478 480)
(481 479)
(480 482)
(483 481)
(482 484)
(485 483)
(484 486)
(487 485)
(486 488)
(489 487)
(488 490)
(491 489)
(490 492)
(493 491)
(492 494)
(495 493)
(494 496)
(497 495)
(496 498)
(499 497)
(498 500)
(501 499)
(500 502)
(503 501)
(502 504)
(505 503)
(504 506)
(507 505)
(506 508)
(509 507)
(508 510)
(511 509)
(510 512)
(513 511)
(512 514)
(515 513)
(514 516)
(517 515)
(516 518)
(519 517)
(520 519)
(518 521)
(522 520)
(521 523)
(524 522)
(523 525)
(526 524)
(525 527)
(528 526)
(527 529)
(530 528)
(529 531)
(532 530)
(531 533)
(534 532)
(533 535)
(536 534)
(537 536)
(535 538)
(539 537)
(538 540)
(541 539)
(540 542)
(543 541)
(542 5)
(5 544)
(545 543)
(544 546)
(547 545)
(548 547)
(549 548)
(546 550)
(551 549)
(552 551)
(550 553)
(553 554)
(555 552)
(556 555)
(557 556)
(558 557)
(554 559)
(560 558)
(561 560)
(559 562)
(563 561)
(564 563)
(562 565)
(566 564)
(6 567)
(565 568)
(568 569)
(570 566)
(569 6)
(571 570)
(572 571)
(573 572)
(567 574)
(574 575)
(576 573)
(575 577)
(578 576)
(579 578)
(577 580)
(580 581)
(582 579)
(583 582)
(581 584)
(584 585)
(586 583)
(587 7)
(585 587)
(588 586)
(589 588)
(9 8)
(7 9)
(590 589)
(8 10)
(591 590)
(10 11)
(592 591)
(11 12)
(593 592)
(12 594)
(594 595)
(596 593)
(595 597)
(598 596)
(597 599)
(599 600)
(601 598)
(602 601)
(600 603)
(603 604)
(605 602)
(604 1)
(606 605)
(607 606)
(0 608)
(608 609)
(610 607)
(609 611)
(612 610)
(611 613)
(614 612)
(613 615)
(616 614)
(615 617)
(617 618)
(619 616)
(618 620)
(621 619)
(620 622)
(623 621)
(622 624)
(624 625)
(626 623)
(625 627)
(628 626)
(627 629)
(630 628)
(629 631)
(631 632)
(3 630)
(632 633)
(633 634)
(635 4)
(634 636)
(636 637)
(638 635)
(637 639)
(640 638)
(639 641)
(641 642)
(643 640)
(644 643)
(642 645)
(646 644)
(645 647)
(648 646)
(647 648)
)

// concaveStart mixedStart nonFeatureStart
0 0 13
// internalStart flatStart openStart multipleStart
2 2 2 651
// normals

643
(
(0.144071 0.98944 0.0158568)
(-0.221983 0.691206 0.687719)
(0.883206 -0.0506333 0.466243)
(0.884311 -0.0722557 0.461273)
(0.884005 -0.0781441 0.460899)
(0.882078 -0.0972534 0.460957)
(0.879322 -0.125932 0.459275)
(0.88372 -0.0916575 0.458953)
(0.876655 -0.164014 0.4523)
(0.882274 -0.0950867 0.461032)
(0.896352 -0.162721 0.412402)
(0.879127 -0.090513 0.467913)
(0.897801 -0.147733 0.414883)
(0.879344 -0.0904292 0.467521)
(0.898621 -0.127585 0.419764)
(0.878647 -0.0935734 0.468213)
(0.898073 -0.127189 0.421056)
(0.878579 -0.0905651 0.468932)
(0.898568 -0.115418 0.423385)
(0.879805 -0.0932767 0.466094)
(0.899043 -0.103384 0.425479)
(0.878799 -0.0957502 0.467487)
(0.899745 -0.0929714 0.426398)
(0.900197 -0.0814987 0.427789)
(0.880315 -0.100345 0.463656)
(0.900331 -0.0671071 0.43)
(0.880491 -0.0999798 0.4634)
(0.900809 -0.0674592 0.428943)
(0.877003 -0.0925772 0.471481)
(0.900938 -0.0531823 0.430677)
(0.876644 -0.093941 0.47188)
(0.900816 -0.0532938 0.430918)
(0.877714 -0.0970746 0.46925)
(0.901476 -0.0525224 0.42963)
(0.881821 -0.106544 0.45939)
(0.899955 -0.0538909 0.43264)
(0.900944 -0.0551151 0.430421)
(0.881667 -0.108038 0.459338)
(0.900498 -0.0529605 0.431624)
(0.871889 -0.0872255 0.481872)
(0.871356 -0.0882907 0.482642)
(0.900046 -0.0583578 0.43187)
(0.901212 -0.0550394 0.42987)
(0.879328 -0.105317 0.464426)
(0.900684 -0.060004 0.430312)
(0.8824 -0.109803 0.457508)
(0.901805 -0.0537822 0.428783)
(0.881475 -0.115027 0.458007)
(0.900956 -0.0575008 0.430083)
(0.902226 -0.0539079 0.427882)
(0.881726 -0.113554 0.457891)
(0.902033 -0.0540409 0.42827)
(0.874975 -0.102165 0.473266)
(0.903937 -0.0357645 0.426167)
(0.874629 -0.104783 0.473334)
(0.900636 -0.0752094 0.428018)
(0.877482 -0.114089 0.465843)
(0.901112 -0.0763269 0.426816)
(0.901379 -0.0713687 0.427109)
(0.877095 -0.116217 0.466046)
(0.900345 -0.0796164 0.427832)
(0.874287 -0.117439 0.470989)
(0.903133 -0.0619785 0.424864)
(0.902544 -0.0622852 0.426069)
(0.872647 -0.120627 0.473219)
(0.872502 -0.120777 0.473449)
(0.904141 -0.0519067 0.424069)
(0.904446 -0.0517689 0.423436)
(0.90267 -0.0732551 0.424053)
(0.871603 -0.124993 0.47401)
(0.902517 -0.0730236 0.424419)
(0.900619 -0.0835513 0.426502)
(0.870887 -0.129381 0.474148)
(0.900461 -0.0835855 0.426829)
(0.898827 -0.0928822 0.428348)
(0.871278 -0.128377 0.473703)
(0.898962 -0.0929096 0.428059)
(0.871828 -0.131757 0.471759)
(0.896898 -0.106645 0.429187)
(0.895855 -0.106369 0.431428)
(0.872634 -0.133159 0.46987)
(0.893215 -0.125945 0.431629)
(0.892406 -0.12588 0.433319)
(0.873992 -0.133785 0.467161)
(0.887579 -0.148509 0.436061)
(0.887172 -0.148264 0.436971)
(0.874255 -0.133092 0.466866)
(0.881804 -0.165131 0.441762)
(0.874437 -0.13421 0.466205)
(0.878871 -0.179064 0.442179)
(0.869762 -0.205734 0.44854)
(0.875233 -0.1343 0.464684)
(0.863172 -0.226393 0.45131)
(0.876296 -0.133439 0.462925)
(0.861803 -0.222756 0.455715)
(0.884031 -0.23068 0.406541)
(0.875754 -0.134443 0.463659)
(0.905496 -0.165159 0.390896)
(0.875751 -0.13431 0.463704)
(0.917139 -0.117821 0.380755)
(0.92265 -0.0662766 0.3799)
(0.87787 -0.134769 0.459545)
(0.924624 -0.0720295 0.374009)
(0.877833 -0.134789 0.459609)
(0.929675 -0.0689985 0.361862)
(0.878732 -0.133908 0.458148)
(0.92916 -0.0745457 0.362085)
(0.878066 -0.135682 0.458902)
(0.929172 -0.0746809 0.362026)
(0.877642 -0.132945 0.460511)
(0.93092 -0.0741673 0.357612)
(0.878856 -0.134972 0.457596)
(0.93092 -0.0740434 0.357639)
(0.878761 -0.134874 0.457809)
(0.928686 -0.0812133 0.361865)
(0.880935 -0.135233 0.453504)
(0.925389 -0.0854117 0.369268)
(0.880797 -0.135317 0.453746)
(0.881468 -0.134542 0.452673)
(0.918925 -0.100084 0.381524)
(0.881076 -0.135259 0.453221)
(0.919004 -0.0979912 0.381876)
(0.87953 -0.135882 0.456031)
(0.919775 -0.0986827 0.379837)
(0.882682 -0.133835 0.450511)
(0.919738 -0.0986378 0.379938)
(0.880826 -0.136164 0.453438)
(0.919786 -0.100596 0.379307)
(0.880816 -0.136213 0.453442)
(0.918569 -0.100486 0.382274)
(0.879923 -0.133296 0.456034)
(0.919214 -0.102542 0.380173)
(0.882178 -0.136398 0.450731)
(0.924078 -0.0965613 0.369806)
(0.879781 -0.134195 0.456045)
(0.918875 -0.103797 0.380651)
(0.880607 -0.136124 0.453873)
(0.883226 -0.134791 0.449159)
(0.918797 -0.103269 0.380981)
(0.881441 -0.13635 0.452183)
(0.914716 -0.111146 0.388512)
(0.882276 -0.134624 0.451071)
(0.915085 -0.111579 0.387518)
(0.882385 -0.136381 0.45033)
(0.915084 -0.111583 0.387517)
(0.881408 -0.134503 0.4528)
(0.911699 -0.115576 0.394268)
(0.881379 -0.134471 0.452866)
(0.911685 -0.11609 0.39415)
(0.884214 -0.136754 0.446613)
(0.910953 -0.118533 0.395113)
(0.882166 -0.135523 0.451017)
(0.912282 -0.117309 0.392404)
(0.883021 -0.134726 0.44958)
(0.913953 -0.118916 0.388006)
(0.881939 -0.137243 0.45094)
(0.91385 -0.120781 0.387673)
(0.881656 -0.134548 0.452304)
(0.90294 -0.131893 0.409028)
(0.882035 -0.135443 0.451297)
(0.910411 -0.129856 0.392796)
(0.883389 -0.134874 0.448813)
(0.910476 -0.130513 0.392428)
(0.88018 -0.137024 0.454431)
(0.913438 -0.132454 0.38482)
(0.881442 -0.135399 0.452468)
(0.912266 -0.135264 0.386619)
(0.881451 -0.135347 0.452466)
(0.90687 -0.137056 0.398501)
(0.881433 -0.135289 0.452518)
(0.906875 -0.13699 0.398511)
(0.880841 -0.135297 0.453667)
(0.91316 -0.141502 0.38225)
(0.880837 -0.135299 0.453674)
(0.913187 -0.137851 0.383518)
(0.88084 -0.135297 0.453669)
(0.908263 -0.140376 0.394149)
(0.88084 -0.135297 0.453669)
(0.908945 -0.138652 0.393186)
(0.880855 -0.135246 0.453655)
(0.908043 -0.139637 0.394917)
(0.880867 -0.135302 0.453614)
(0.910047 -0.140543 0.389951)
(0.880867 -0.135302 0.453614)
(0.909279 -0.137896 0.392679)
(0.880836 -0.135272 0.453684)
(0.908656 -0.139629 0.393507)
(0.87709 -0.135679 0.460764)
(0.908928 -0.140519 0.392562)
(0.878685 -0.135017 0.457911)
(0.909266 -0.137922 0.392699)
(0.879678 -0.134351 0.456198)
(0.90826 -0.139553 0.394448)
(0.879111 -0.135089 0.457072)
(0.907273 -0.140394 0.396415)
(0.878979 -0.135855 0.457098)
(0.907095 -0.137577 0.397808)
(0.878098 -0.133191 0.459569)
(0.908267 -0.139554 0.394431)
(0.880387 -0.136224 0.45427)
(0.908294 -0.139697 0.394319)
(0.880424 -0.136257 0.45419)
(0.908322 -0.139589 0.394292)
(0.87587 -0.135453 0.463146)
(0.908343 -0.139562 0.394254)
(0.877945 -0.133962 0.459638)
(0.909059 -0.139022 0.39279)
(0.877427 -0.134722 0.460404)