/*--------------------------------*- C++ -*----------------------------------*\
  =========                 |
  \\      /  F ield         | OpenFOAM: The Open Source CFD Toolbox
   \\    /   O peration     | Website:  https://openfoam.org
    \\  /    A nd           | Version:  11
     \\/     M anipulation  |
\*---------------------------------------------------------------------------*/
FoamFile
{
    format      ascii;
    class       extendedFeatureEdgeMesh;
    location    "constant/extendedFeatureEdgeMesh";
    object      Outlet1s.extendedFeatureEdgeMesh;
}
// * * * * * * * * * * * * * * * * * * * * * * * * * * * * * * * * * * * * * //

// points

661
(
(0.596704 -0.579629 0.823956)
(0.596738 -0.580129 0.823942)
(0.616074 -0.558049 0.782564)
(0.616038 -0.557552 0.782583)
(0.59667 -0.57913 0.82397)
(0.596534 -0.577132 0.824025)
(0.596568 -0.577631 0.824011)
(0.615892 -0.555564 0.78266)
(0.615855 -0.555067 0.782679)
(0.5965 -0.576632 0.824039)
(0.609885 -0.526394 0.791541)
(0.609701 -0.526119 0.79189)
(0.594324 -0.543657 0.824825)
(0.594357 -0.544157 0.824815)
(0.609512 -0.525871 0.792255)
(0.594292 -0.543158 0.824835)
(0.609316 -0.526129 0.792643)
(0.609554 -0.526433 0.792196)
(0.609318 -0.525657 0.79264)
(0.609112 -0.525934 0.793032)
(0.59426 -0.542648 0.824844)
(0.609118 -0.525481 0.79304)
(0.594231 -0.54214 0.824846)
(0.608912 -0.525345 0.793452)
(0.608701 -0.525245 0.793872)
(0.594208 -0.541632 0.824837)
(0.608487 -0.525174 0.794297)
(0.594193 -0.541122 0.82481)
(0.608272 -0.525122 0.794723)
(0.608045 -0.525074 0.795171)
(0.594189 -0.540615 0.824762)
(0.607819 -0.525031 0.79562)
(0.607593 -0.524993 0.796069)
(0.594198 -0.540111 0.824689)
(0.607367 -0.524959 0.796519)
(0.607141 -0.52493 0.796969)
(0.59422 -0.539612 0.82459)
(0.606916 -0.524905 0.797419)
(0.594255 -0.539119 0.824464)
(0.60669 -0.524884 0.79787)
(0.594304 -0.538635 0.824312)
(0.606464 -0.524867 0.79832)
(0.606239 -0.524853 0.798771)
(0.594365 -0.538161 0.824137)
(0.606014 -0.524844 0.799223)
(0.605789 -0.524838 0.799674)
(0.594437 -0.537695 0.823943)
(0.605564 -0.524835 0.800125)
(0.594516 -0.537237 0.823734)
(0.605339 -0.524836 0.800577)
(0.605115 -0.52484 0.801028)
(0.5946 -0.536784 0.823516)
(0.594688 -0.53633 0.823291)
(0.604891 -0.524848 0.80148)
(0.604666 -0.524858 0.801932)
(0.594778 -0.53588 0.823062)
(0.604442 -0.524872 0.802383)
(0.604219 -0.524889 0.802835)
(0.59487 -0.535431 0.822829)
(0.603995 -0.524909 0.803286)
(0.594964 -0.534986 0.822591)
(0.603772 -0.524932 0.803738)
(0.603549 -0.524959 0.80419)
(0.595061 -0.534543 0.822349)
(0.603326 -0.524988 0.804641)
(0.59516 -0.534103 0.822103)
(0.603103 -0.52502 0.805092)
(0.60288 -0.525056 0.805544)
(0.595261 -0.533665 0.821853)
(0.602658 -0.525094 0.805995)
(0.595365 -0.533231 0.821599)
(0.602436 -0.525135 0.806445)
(0.602214 -0.52518 0.806896)
(0.595471 -0.5328 0.82134)
(0.601993 -0.525228 0.807347)
(0.595579 -0.532372 0.821078)
(0.601772 -0.525278 0.807797)
(0.601551 -0.525333 0.808247)
(0.595689 -0.531946 0.820811)
(0.60133 -0.52539 0.808697)
(0.595801 -0.531524 0.82054)
(0.60111 -0.525451 0.809147)
(0.60089 -0.525515 0.809596)
(0.595915 -0.531106 0.820265)
(0.60067 -0.525583 0.810045)
(0.596032 -0.53069 0.819987)
(0.600451 -0.525655 0.810493)
(0.600232 -0.52573 0.810941)
(0.596151 -0.530278 0.819704)
(0.600013 -0.525809 0.811389)
(0.599795 -0.525892 0.811836)
(0.596271 -0.529869 0.819417)
(0.599578 -0.52598 0.812282)
(0.596394 -0.529464 0.819126)
(0.59936 -0.526072 0.812728)
(0.599143 -0.526168 0.813173)
(0.596518 -0.52907 0.818835)
(0.598927 -0.52627 0.813617)
(0.598711 -0.526376 0.81406)
(0.596647 -0.528689 0.818531)
(0.598497 -0.526487 0.814503)
(0.598282 -0.526604 0.814944)
(0.596785 -0.528328 0.818207)
(0.598069 -0.526728 0.815385)
(0.596935 -0.527994 0.81786)
(0.597859 -0.526865 0.815822)
(0.597097 -0.527695 0.817487)
(0.597272 -0.527434 0.817093)
(0.597655 -0.527024 0.816255)
(0.597458 -0.527212 0.81668)
(0.594972 -0.553651 0.824613)
(0.595004 -0.554151 0.824602)
(0.61323 -0.53312 0.785558)
(0.613067 -0.532729 0.785842)
(0.594939 -0.553152 0.824625)
(0.612903 -0.532342 0.786129)
(0.594906 -0.552652 0.824636)
(0.612737 -0.531958 0.78642)
(0.594874 -0.552152 0.824647)
(0.61257 -0.531578 0.786715)
(0.594841 -0.551653 0.824658)
(0.612401 -0.531202 0.787014)
(0.594809 -0.551153 0.824669)
(0.61223 -0.530829 0.787316)
(0.594776 -0.550653 0.824679)
(0.612057 -0.53046 0.787622)
(0.594744 -0.550153 0.82469)
(0.611883 -0.530095 0.787932)
(0.594711 -0.549654 0.824701)
(0.611708 -0.529734 0.788245)
(0.594679 -0.549154 0.824711)
(0.61153 -0.529377 0.788562)
(0.594647 -0.548654 0.824722)
(0.594614 -0.548155 0.824733)
(0.611351 -0.529024 0.788883)
(0.594582 -0.547655 0.824743)
(0.611171 -0.528674 0.789207)
(0.59455 -0.547155 0.824754)
(0.610989 -0.528329 0.789535)
(0.594517 -0.546656 0.824764)
(0.610805 -0.527989 0.789866)
(0.594485 -0.546156 0.824774)
(0.61062 -0.527652 0.7902)
(0.594453 -0.545656 0.824784)
(0.610433 -0.52732 0.790538)
(0.594421 -0.545156 0.824795)
(0.610245 -0.526992 0.79088)
(0.594389 -0.544657 0.824805)
(0.610066 -0.526687 0.791206)
(0.615082 -0.544631 0.783097)
(0.615045 -0.544134 0.783117)
(0.595762 -0.565642 0.824328)
(0.595795 -0.566142 0.824316)
(0.615008 -0.543637 0.783138)
(0.595729 -0.565143 0.824341)
(0.614971 -0.54314 0.783158)
(0.595696 -0.564643 0.824353)
(0.614933 -0.542644 0.783179)
(0.595662 -0.564143 0.824366)
(0.614896 -0.542147 0.7832)
(0.595629 -0.563644 0.824378)
(0.614859 -0.54165 0.78322)
(0.595596 -0.563144 0.824391)
(0.614822 -0.541153 0.783241)
(0.595563 -0.562645 0.824403)
(0.614785 -0.540656 0.783262)
(0.59553 -0.562145 0.824415)
(0.614747 -0.540159 0.783283)
(0.595497 -0.561645 0.824427)
(0.614708 -0.539646 0.783306)
(0.595464 -0.561146 0.824439)
(0.614667 -0.539133 0.783334)
(0.595431 -0.560646 0.824451)
(0.614619 -0.538622 0.783374)
(0.595398 -0.560146 0.824463)
(0.614563 -0.538113 0.78343)
(0.595365 -0.559646 0.824475)
(0.614498 -0.537608 0.783505)
(0.595332 -0.559147 0.824487)
(0.614421 -0.537108 0.783605)
(0.595299 -0.558648 0.824499)
(0.614332 -0.536617 0.78373)
(0.595266 -0.558148 0.82451)
(0.614229 -0.536135 0.783883)
(0.595233 -0.557648 0.824522)
(0.614114 -0.535666 0.784062)
(0.595201 -0.557149 0.824534)
(0.595168 -0.556649 0.824545)
(0.613988 -0.535211 0.784266)
(0.595135 -0.556149 0.824557)
(0.61385 -0.53477 0.784493)
(0.595102 -0.55565 0.824568)
(0.613704 -0.534342 0.78474)
(0.59507 -0.55515 0.82458)
(0.613551 -0.533926 0.785002)
(0.595037 -0.554651 0.824591)
(0.613392 -0.533519 0.785276)
(0.596636 -0.57863 0.823984)
(0.616001 -0.557055 0.782602)
(0.615965 -0.556558 0.782622)
(0.596602 -0.578131 0.823998)
(0.615928 -0.556061 0.782641)
(0.615819 -0.55457 0.782698)
(0.596467 -0.576133 0.824053)
(0.615782 -0.554073 0.782718)
(0.596433 -0.575633 0.824067)
(0.615745 -0.553576 0.782737)
(0.596399 -0.575134 0.82408)
(0.615709 -0.553079 0.782757)
(0.596365 -0.574634 0.824094)
(0.615672 -0.552582 0.782776)
(0.596332 -0.574135 0.824107)
(0.615635 -0.552085 0.782796)
(0.596298 -0.573635 0.824121)
(0.615599 -0.551588 0.782816)
(0.596264 -0.573136 0.824134)
(0.615562 -0.551091 0.782835)
(0.596231 -0.572636 0.824147)
(0.615525 -0.550594 0.782855)
(0.596197 -0.572137 0.824161)
(0.615488 -0.550097 0.782875)
(0.596163 -0.571637 0.824174)
(0.615451 -0.5496 0.782895)
(0.59613 -0.571137 0.824187)
(0.615414 -0.549104 0.782915)
(0.596096 -0.570638 0.8242)
(0.615378 -0.548607 0.782935)
(0.596063 -0.570138 0.824213)
(0.615341 -0.54811 0.782955)
(0.596029 -0.569639 0.824226)
(0.615304 -0.547613 0.782975)
(0.595996 -0.569139 0.824239)
(0.615267 -0.547116 0.782995)
(0.595962 -0.56864 0.824252)
(0.61523 -0.546619 0.783015)
(0.595929 -0.56814 0.824265)
(0.615193 -0.546122 0.783036)
(0.595896 -0.56764 0.824278)
(0.615156 -0.545625 0.783056)
(0.595862 -0.567141 0.824291)
(0.615119 -0.545128 0.783076)
(0.595829 -0.566641 0.824303)
(0.597494 -0.591117 0.823618)
(0.597529 -0.591616 0.823603)
(0.616905 -0.569482 0.782142)
(0.61687 -0.568985 0.78216)
(0.597459 -0.590617 0.823633)
(0.616834 -0.568487 0.782178)
(0.597425 -0.590118 0.823649)
(0.616798 -0.56799 0.782196)
(0.59739 -0.589618 0.823664)
(0.616762 -0.567493 0.782214)
(0.597356 -0.589119 0.823679)
(0.616726 -0.566996 0.782232)
(0.597321 -0.58862 0.823694)
(0.61669 -0.566499 0.78225)
(0.597287 -0.58812 0.823709)
(0.616654 -0.566002 0.782268)
(0.597252 -0.587621 0.823724)
(0.616618 -0.565505 0.782286)
(0.597218 -0.587121 0.823739)
(0.616582 -0.565008 0.782304)
(0.597183 -0.586622 0.823754)
(0.616546 -0.564511 0.782322)
(0.597149 -0.586122 0.823768)
(0.61651 -0.564014 0.782341)
(0.597115 -0.585623 0.823783)
(0.616473 -0.563517 0.782359)
(0.59708 -0.585124 0.823798)
(0.616437 -0.56302 0.782377)
(0.597046 -0.584624 0.823812)
(0.616401 -0.562523 0.782396)
(0.597011 -0.584125 0.823827)
(0.616365 -0.562025 0.782414)
(0.596977 -0.583625 0.823841)
(0.616329 -0.561528 0.782433)
(0.596943 -0.583126 0.823856)
(0.616292 -0.561031 0.782451)
(0.596909 -0.582626 0.82387)
(0.616256 -0.560534 0.78247)
(0.596875 -0.582127 0.823885)
(0.61622 -0.560037 0.782489)
(0.596841 -0.581627 0.823899)
(0.616183 -0.55954 0.782508)
(0.596806 -0.581128 0.823913)
(0.616147 -0.559043 0.782526)
(0.596772 -0.580628 0.823927)
(0.616111 -0.558546 0.782545)
(0.617828 -0.582408 0.7817)
(0.617792 -0.581911 0.781717)
(0.59837 -0.603601 0.82322)
(0.598405 -0.6041 0.823203)
(0.617757 -0.581413 0.781733)
(0.598334 -0.603102 0.823237)
(0.617722 -0.580916 0.78175)
(0.598299 -0.602602 0.823253)
(0.617687 -0.580419 0.781766)
(0.598263 -0.602103 0.823269)
(0.617652 -0.579922 0.781782)
(0.598228 -0.601604 0.823286)
(0.617617 -0.579425 0.781799)
(0.598193 -0.601104 0.823302)
(0.617581 -0.578927 0.781816)
(0.598158 -0.600605 0.823319)
(0.617546 -0.57843 0.781832)
(0.598123 -0.600106 0.823335)
(0.61751 -0.577933 0.781849)
(0.598088 -0.599606 0.823351)
(0.617475 -0.577436 0.781866)
(0.598052 -0.599107 0.823367)
(0.61744 -0.576939 0.781883)
(0.598017 -0.598608 0.823383)
(0.617404 -0.576442 0.7819)
(0.597982 -0.598108 0.823399)
(0.617369 -0.575944 0.781917)
(0.597947 -0.597609 0.823415)
(0.617333 -0.575447 0.781934)
(0.597912 -0.59711 0.823431)
(0.617298 -0.57495 0.781951)
(0.597877 -0.59661 0.823447)
(0.617262 -0.574453 0.781968)
(0.597842 -0.596111 0.823463)
(0.617227 -0.573956 0.781985)
(0.597807 -0.595611 0.823479)
(0.617191 -0.573459 0.782003)
(0.597772 -0.595112 0.823494)
(0.617156 -0.572962 0.78202)
(0.597737 -0.594613 0.82351)
(0.61712 -0.572464 0.782037)
(0.597703 -0.594113 0.823526)
(0.617084 -0.571967 0.782055)
(0.597668 -0.593614 0.823541)
(0.617049 -0.57147 0.782072)
(0.597633 -0.593114 0.823557)
(0.617013 -0.570973 0.782089)
(0.597598 -0.592615 0.823572)
(0.616977 -0.570476 0.782107)
(0.597563 -0.592116 0.823588)
(0.616941 -0.569979 0.782125)
(0.599298 -0.616582 0.822771)
(0.599334 -0.617081 0.822753)
(0.618696 -0.594839 0.78131)
(0.618661 -0.594342 0.781325)
(0.599262 -0.616083 0.822789)
(0.618627 -0.593845 0.78134)
(0.599226 -0.615584 0.822807)
(0.618593 -0.593347 0.781355)
(0.59919 -0.615084 0.822825)
(0.618558 -0.59285 0.78137)
(0.599154 -0.614585 0.822842)
(0.618524 -0.592353 0.781385)
(0.599118 -0.614086 0.82286)
(0.618489 -0.591855 0.781401)
(0.599082 -0.613587 0.822878)
(0.618455 -0.591358 0.781416)
(0.599046 -0.613087 0.822895)
(0.61842 -0.590861 0.781431)
(0.599011 -0.612588 0.822913)
(0.618385 -0.590364 0.781447)
(0.598975 -0.612089 0.82293)
(0.618351 -0.589866 0.781462)
(0.598939 -0.61159 0.822948)
(0.618316 -0.589369 0.781478)
(0.598903 -0.61109 0.822965)
(0.618281 -0.588872 0.781493)
(0.598867 -0.610591 0.822983)
(0.618247 -0.588375 0.781509)
(0.598832 -0.610092 0.823)
(0.618212 -0.587877 0.781524)
(0.598796 -0.609593 0.823017)
(0.618177 -0.58738 0.78154)
(0.59876 -0.609093 0.823034)
(0.618142 -0.586883 0.781556)
(0.598724 -0.608594 0.823052)
(0.618107 -0.586386 0.781572)
(0.598689 -0.608095 0.823069)
(0.618073 -0.585888 0.781588)
(0.598653 -0.607595 0.823086)
(0.618038 -0.585391 0.781604)
(0.598618 -0.607096 0.823103)
(0.618003 -0.584894 0.78162)
(0.598582 -0.606597 0.82312)
(0.617968 -0.584397 0.781636)
(0.598547 -0.606098 0.823136)
(0.617933 -0.583899 0.781652)
(0.598511 -0.605598 0.823153)
(0.617898 -0.583402 0.781668)
(0.598476 -0.605099 0.82317)
(0.617863 -0.582905 0.781684)
(0.59844 -0.6046 0.823187)
(0.61958 -0.60777 0.780941)
(0.619546 -0.607273 0.780954)
(0.600209 -0.629062 0.822304)
(0.600245 -0.629561 0.822285)
(0.619512 -0.606776 0.780968)
(0.600172 -0.628562 0.822323)
(0.619479 -0.606278 0.780981)
(0.600135 -0.628063 0.822343)
(0.619445 -0.605781 0.780995)
(0.600099 -0.627564 0.822362)
(0.619411 -0.605283 0.781009)
(0.600062 -0.627065 0.822381)
(0.619377 -0.604786 0.781023)
(0.600025 -0.626566 0.8224)
(0.619344 -0.604289 0.781036)
(0.599989 -0.626067 0.822419)
(0.61931 -0.603791 0.78105)
(0.599952 -0.625568 0.822438)
(0.619276 -0.603294 0.781064)
(0.599916 -0.625068 0.822457)
(0.619242 -0.602797 0.781078)
(0.599879 -0.624569 0.822476)
(0.619208 -0.602299 0.781092)
(0.599843 -0.62407 0.822495)
(0.619174 -0.601802 0.781107)
(0.599806 -0.623571 0.822514)
(0.61914 -0.601305 0.781121)
(0.59977 -0.623072 0.822532)
(0.619106 -0.600807 0.781135)
(0.599733 -0.622573 0.822551)
(0.619072 -0.60031 0.781149)
(0.599697 -0.622073 0.82257)
(0.619038 -0.599812 0.781164)
(0.599661 -0.621574 0.822588)
(0.619004 -0.599315 0.781178)
(0.599624 -0.621075 0.822607)
(0.61897 -0.598818 0.781193)
(0.599588 -0.620576 0.822625)
(0.618936 -0.59832 0.781207)
(0.599552 -0.620077 0.822644)
(0.618902 -0.597823 0.781222)
(0.599515 -0.619577 0.822662)
(0.618867 -0.597326 0.781236)
(0.599479 -0.619078 0.82268)
(0.618833 -0.596828 0.781251)
(0.599443 -0.618579 0.822698)
(0.618799 -0.596331 0.781266)
(0.599407 -0.61808 0.822717)
(0.618765 -0.595834 0.78128)
(0.59937 -0.617581 0.822735)
(0.61873 -0.595337 0.781295)
(0.620445 -0.620704 0.780608)
(0.620412 -0.620206 0.78062)
(0.601135 -0.641538 0.821801)
(0.601173 -0.642037 0.82178)
(0.620379 -0.619709 0.780632)
(0.601098 -0.641039 0.821822)
(0.620346 -0.619211 0.780644)
(0.601061 -0.64054 0.821843)
(0.620313 -0.618714 0.780657)
(0.62028 -0.618216 0.780669)
(0.601023 -0.640041 0.821864)
(0.620247 -0.617719 0.780682)
(0.600986 -0.639542 0.821884)
(0.620213 -0.617221 0.780694)
(0.600949 -0.639043 0.821905)
(0.62018 -0.616724 0.780706)
(0.600912 -0.638544 0.821925)
(0.620147 -0.616227 0.780719)
(0.600874 -0.638045 0.821946)
(0.620114 -0.615729 0.780732)
(0.600837 -0.637546 0.821966)
(0.620081 -0.615232 0.780744)
(0.6008 -0.637047 0.821987)
(0.620048 -0.614734 0.780757)
(0.600763 -0.636548 0.822007)
(0.620014 -0.614237 0.78077)
(0.600726 -0.636049 0.822027)
(0.619981 -0.613739 0.780782)
(0.600689 -0.63555 0.822047)
(0.619948 -0.613242 0.780795)
(0.600651 -0.635051 0.822067)
(0.619914 -0.612744 0.780808)
(0.600615 -0.634552 0.822088)
(0.619881 -0.612247 0.780821)
(0.600577 -0.634053 0.822107)
(0.619848 -0.61175 0.780834)
(0.60054 -0.633553 0.822127)
(0.619814 -0.611252 0.780847)
(0.600503 -0.633054 0.822147)
(0.619781 -0.610755 0.78086)
(0.600466 -0.632555 0.822167)
(0.619747 -0.610257 0.780874)
(0.60043 -0.632056 0.822187)
(0.619714 -0.60976 0.780887)
(0.600393 -0.631557 0.822206)
(0.61968 -0.609263 0.7809)
(0.600356 -0.631058 0.822226)
(0.619647 -0.608765 0.780914)
(0.600319 -0.630559 0.822246)
(0.619613 -0.608268 0.780927)
(0.600282 -0.63006 0.822265)
(0.621292 -0.633639 0.780313)
(0.62126 -0.633142 0.780323)
(0.603834 -0.652895 0.817617)
(0.603999 -0.653287 0.817329)
(0.621228 -0.632644 0.780334)
(0.603671 -0.652499 0.817901)
(0.621195 -0.632146 0.780345)
(0.603509 -0.6521 0.818182)
(0.621163 -0.631649 0.780356)
(0.60335 -0.651697 0.818458)
(0.621131 -0.631151 0.780367)
(0.603192 -0.651291 0.81873)
(0.621098 -0.630654 0.780378)
(0.603036 -0.650882 0.818998)
(0.621066 -0.630156 0.780388)
(0.602881 -0.650469 0.819263)
(0.621033 -0.629659 0.780399)
(0.602729 -0.650053 0.819523)
(0.621001 -0.629161 0.780411)
(0.602578 -0.649634 0.819779)
(0.620968 -0.628664 0.780422)
(0.620936 -0.628166 0.780433)
(0.60243 -0.649212 0.820031)
(0.602284 -0.648789 0.820276)
(0.620903 -0.627669 0.780444)
(0.62087 -0.627171 0.780456)
(0.602143 -0.64836 0.820512)
(0.620838 -0.626674 0.780467)
(0.602009 -0.647921 0.820734)
(0.620805 -0.626176 0.780479)
(0.601884 -0.647471 0.820938)
(0.620773 -0.625679 0.78049)
(0.601769 -0.647009 0.821119)
(0.62074 -0.625181 0.780502)
(0.601666 -0.646535 0.821275)
(0.620707 -0.624684 0.780513)
(0.601575 -0.646051 0.821405)
(0.620674 -0.624186 0.780525)
(0.601498 -0.645558 0.821508)
(0.620642 -0.623689 0.780536)
(0.601432 -0.645059 0.821588)
(0.620609 -0.623191 0.780548)
(0.601376 -0.644555 0.821646)
(0.620576 -0.622694 0.78056)
(0.601328 -0.64405 0.821687)
(0.620543 -0.622196 0.780572)
(0.601286 -0.643544 0.821716)
(0.62051 -0.621699 0.780584)
(0.601248 -0.643035 0.821738)
(0.620477 -0.621201 0.780596)
(0.60121 -0.642536 0.821759)
(0.618059 -0.656683 0.78938)
(0.618242 -0.656495 0.788978)
(0.618414 -0.656269 0.78859)
(0.618575 -0.656006 0.788221)
(0.617866 -0.656837 0.789792)
(0.618726 -0.655712 0.787872)
(0.617665 -0.656962 0.790211)
(0.618869 -0.655394 0.787541)
(0.617461 -0.657071 0.790633)
(0.617245 -0.657177 0.791076)
(0.619006 -0.655058 0.787226)
(0.617029 -0.657278 0.79152)
(0.61914 -0.654712 0.78692)
(0.616812 -0.657375 0.791965)
(0.619279 -0.654341 0.7866)
(0.616595 -0.657467 0.792411)
(0.619417 -0.653966 0.786284)
(0.616377 -0.657555 0.792857)
(0.616159 -0.657639 0.793304)
(0.619552 -0.653587 0.785972)
(0.615941 -0.657719 0.793751)
(0.615722 -0.657795 0.794199)
(0.619685 -0.653204 0.785663)
(0.615502 -0.657867 0.794648)
(0.619816 -0.652818 0.785358)
(0.615283 -0.657935 0.795096)
(0.619945 -0.652428 0.785057)
(0.615063 -0.658 0.795545)
(0.614842 -0.658062 0.795995)
(0.620072 -0.652034 0.78476)
(0.614621 -0.65812 0.796445)
(0.620197 -0.651637 0.784466)
(0.6144 -0.658175 0.796895)
(0.62032 -0.651236 0.784176)
(0.614179 -0.658226 0.797345)
(0.613958 -0.658275 0.797795)
(0.62044 -0.650832 0.783891)
(0.613736 -0.65832 0.798246)
(0.620558 -0.650425 0.783609)
(0.613514 -0.658362 0.798697)
(0.620675 -0.650014 0.783331)
(0.613292 -0.658401 0.799148)
(0.620789 -0.6496 0.783056)
(0.613069 -0.658437 0.799599)
(0.620901 -0.649183 0.782786)
(0.612846 -0.65847 0.80005)
(0.612623 -0.658499 0.800502)
(0.621011 -0.648763 0.78252)
(0.6124 -0.658526 0.800953)
(0.621118 -0.648339 0.782258)
(0.612177 -0.65855 0.801405)
(0.611953 -0.65857 0.801856)
(0.621224 -0.647913 0.782)
(0.61173 -0.658588 0.802308)
(0.621328 -0.647479 0.781743)
(0.611506 -0.658602 0.80276)
(0.621428 -0.647038 0.781495)
(0.611282 -0.658614 0.803211)
(0.611058 -0.658622 0.803663)
(0.621521 -0.64659 0.78126)
(0.610833 -0.658627 0.804115)
(0.621606 -0.646131 0.781041)
(0.610609 -0.658628 0.804566)
(0.621679 -0.645662 0.780842)
(0.610384 -0.658626 0.805018)
(0.610159 -0.658621 0.805469)
(0.621741 -0.645181 0.780667)
(0.609934 -0.658612 0.80592)
(0.609709 -0.658599 0.806372)
(0.621789 -0.644691 0.780517)
(0.609484 -0.658583 0.806822)
(0.621823 -0.644192 0.780395)
(0.609258 -0.658562 0.807273)
(0.609033 -0.658538 0.807723)
(0.621843 -0.643686 0.780301)
(0.608807 -0.658509 0.808173)
(0.608581 -0.658475 0.808623)
(0.62185 -0.643175 0.780233)
(0.608355 -0.658437 0.809072)
(0.621844 -0.642662 0.780188)
(0.608128 -0.658395 0.809521)
(0.607902 -0.658347 0.809969)
(0.621828 -0.642148 0.780164)
(0.607675 -0.658294 0.810416)
(0.607449 -0.658236 0.810863)
(0.621805 -0.641633 0.780156)
(0.607223 -0.65817 0.811309)
(0.621775 -0.641119 0.78016)
(0.606998 -0.65809 0.811754)
(0.606775 -0.657988 0.812195)
(0.621743 -0.640605 0.780169)
(0.606556 -0.657856 0.81263)
(0.621711 -0.640108 0.780179)
(0.606343 -0.657687 0.813054)
(0.606135 -0.657478 0.813464)
(0.621679 -0.63961 0.780189)
(0.605934 -0.657228 0.813853)
(0.621646 -0.639112 0.780199)
(0.605742 -0.65694 0.81422)
(0.621614 -0.638615 0.780209)
(0.605556 -0.656622 0.814565)
(0.621582 -0.638117 0.780219)
(0.605377 -0.656282 0.814891)
(0.62155 -0.63762 0.780229)
(0.605201 -0.655928 0.815205)
(0.621518 -0.637122 0.780239)
(0.605025 -0.655562 0.81552)
(0.621486 -0.636624 0.78025)
(0.60485 -0.655193 0.815831)
(0.621454 -0.636127 0.78026)
(0.604676 -0.654819 0.816138)
(0.621422 -0.635629 0.78027)
(0.604505 -0.654442 0.816442)
(0.621389 -0.635132 0.780281)
(0.604334 -0.65406 0.816741)
(0.621357 -0.634634 0.780291)
(0.604166 -0.653676 0.817037)
(0.621325 -0.634137 0.780302)
)

// edges

661
(
(0 1)
(2 3)
(4 0)
(5 6)
(7 8)
(9 5)
(10 11)
(12 13)
(11 14)
(15 12)
(16 17)
(14 18)
(19 16)
(20 15)
(18 21)
(22 20)
(21 23)
(23 24)
(25 22)
(24 26)
(27 25)
(26 28)
(28 29)
(30 27)
(29 31)
(31 32)
(33 30)
(32 34)
(34 35)
(36 33)
(35 37)
(38 36)
(37 39)
(40 38)
(39 41)
(41 42)
(43 40)
(42 44)
(44 45)
(46 43)
(45 47)
(48 46)
(47 49)
(49 50)
(51 48)
(52 51)
(50 53)
(53 54)
(55 52)
(54 56)
(56 57)
(58 55)
(57 59)
(60 58)
(59 61)
(61 62)
(63 60)
(62 64)
(65 63)
(64 66)
(66 67)
(68 65)
(67 69)
(70 68)
(69 71)
(71 72)
(73 70)
(72 74)
(75 73)
(74 76)
(76 77)
(78 75)
(77 79)
(80 78)
(79 81)
(81 82)
(83 80)
(82 84)
(85 83)
(84 86)
(86 87)
(88 85)
(87 89)
(89 90)
(91 88)
(90 92)
(93 91)
(92 94)
(94 95)
(96 93)
(95 97)
(97 98)
(99 96)
(98 100)
(100 101)
(102 99)
(101 103)
(104 102)
(103 105)
(106 104)
(107 106)
(105 108)
(108 109)
(109 107)
(110 111)
(112 113)
(114 110)
(113 115)
(116 114)
(115 117)
(118 116)
(117 119)
(120 118)
(119 121)
(122 120)
(121 123)
(124 122)
(123 125)
(126 124)
(125 127)
(128 126)
(127 129)
(130 128)
(129 131)
(132 130)
(133 132)
(131 134)
(135 133)
(134 136)
(137 135)
(136 138)
(139 137)
(138 140)
(141 139)
(140 142)
(143 141)
(142 144)
(145 143)
(144 146)
(147 145)
(146 148)
(13 147)
(148 10)
(17 19)
(149 150)
(151 152)
(150 153)
(154 151)
(153 155)
(156 154)
(155 157)
(158 156)
(157 159)
(160 158)
(159 161)
(162 160)
(161 163)
(164 162)
(163 165)
(166 164)
(165 167)
(168 166)
(167 169)
(170 168)
(169 171)
(172 170)
(171 173)
(174 172)
(173 175)
(176 174)
(175 177)
(178 176)
(177 179)
(180 178)
(179 181)
(182 180)
(181 183)
(184 182)
(183 185)
(186 184)
(187 186)
(185 188)
(189 187)
(188 190)
(191 189)
(190 192)
(193 191)
(192 194)
(195 193)
(194 196)
(111 195)
(196 112)
(197 4)
(198 199)
(200 197)
(199 201)
(6 200)
(201 7)
(8 202)
(203 9)
(202 204)
(205 203)
(204 206)
(207 205)
(206 208)
(209 207)
(208 210)
(211 209)
(210 212)
(213 211)
(212 214)
(215 213)
(214 216)
(217 215)
(216 218)
(219 217)
(218 220)
(221 219)
(220 222)
(223 221)
(222 224)
(225 223)
(224 226)
(227 225)
(226 228)
(229 227)
(228 230)
(231 229)
(230 232)
(233 231)
(232 234)
(235 233)
(234 236)
(237 235)
(236 238)
(239 237)
(238 240)
(241 239)
(240 149)
(152 241)
(242 243)
(244 245)
(246 242)
(245 247)
(248 246)
(247 249)
(250 248)
(249 251)
(252 250)
(251 253)
(254 252)
(253 255)
(256 254)
(255 257)
(258 256)
(257 259)
(260 258)
(259 261)
(262 260)
(261 263)
(264 262)
(263 265)
(266 264)
(265 267)
(268 266)
(267 269)
(270 268)
(269 271)
(272 270)
(271 273)
(274 272)
(273 275)
(276 274)
(275 277)
(278 276)
(277 279)
(280 278)
(279 281)
(282 280)
(281 283)
(284 282)
(283 285)
(286 284)
(285 287)
(1 286)
(287 2)
(3 198)
(288 289)
(290 291)
(289 292)
(293 290)
(292 294)
(295 293)
(294 296)
(297 295)
(296 298)
(299 297)
(298 300)
(301 299)
(300 302)
(303 301)
(302 304)
(305 303)
(304 306)
(307 305)
(306 308)
(309 307)
(308 310)
(311 309)
(310 312)
(313 311)
(312 314)
(315 313)
(314 316)
(317 315)
(316 318)
(319 317)
(318 320)
(321 319)
(320 322)
(323 321)
(322 324)
(325 323)
(324 326)
(327 325)
(326 328)
(329 327)
(328 330)
(331 329)
(330 332)
(333 331)
(332 334)
(335 333)
(334 336)
(337 335)
(336 338)
(243 337)
(338 244)
(339 340)
(341 342)
(343 339)
(342 344)
(345 343)
(344 346)
(347 345)
(346 348)
(349 347)
(348 350)
(351 349)
(350 352)
(353 351)
(352 354)
(355 353)
(354 356)
(357 355)
(356 358)
(359 357)
(358 360)
(361 359)
(360 362)
(363 361)
(362 364)
(365 363)
(364 366)
(367 365)
(366 368)
(369 367)
(368 370)
(371 369)
(370 372)
(373 371)
(372 374)
(375 373)
(374 376)
(377 375)
(376 378)
(379 377)
(378 380)
(381 379)
(380 382)
(383 381)
(382 384)
(385 383)
(384 386)
(387 385)
(386 388)
(389 387)
(388 288)
(291 389)
(390 391)
(392 393)
(391 394)
(395 392)
(394 396)
(397 395)
(396 398)
(399 397)
(398 400)
(401 399)
(400 402)
(403 401)
(402 404)
(405 403)
(404 406)
(407 405)
(406 408)
(409 407)
(408 410)
(411 409)
(410 412)
(413 411)
(412 414)
(415 413)
(414 416)
(417 415)
(416 418)
(419 417)
(418 420)
(421 419)
(420 422)
(423 421)
(422 424)
(425 423)
(424 426)
(427 425)
(426 428)
(429 427)
(428 430)
(431 429)
(430 432)
(433 431)
(432 434)
(435 433)
(434 436)
(437 435)
(436 438)
(439 437)
(438 440)
(340 439)
(440 341)
(441 442)
(443 444)
(442 445)
(446 443)
(445 447)
(448 446)
(447 449)
(449 450)
(451 448)
(450 452)
(453 451)
(452 454)
(455 453)
(454 456)
(457 455)
(456 458)
(459 457)
(458 460)
(461 459)
(460 462)
(463 461)
(462 464)
(465 463)
(464 466)
(467 465)
(466 468)
(469 467)
(468 470)
(471 469)
(470 472)
(473 471)
(472 474)
(475 473)
(474 476)
(477 475)
(476 478)
(479 477)
(478 480)
(481 479)
(480 482)
(483 481)
(482 484)
(485 483)
(484 486)
(487 485)
(486 488)
(489 487)
(488 490)
(491 489)
(393 491)
(490 390)
(492 493)
(494 495)
(493 496)
(497 494)
(496 498)
(499 497)
(498 500)
(501 499)
(500 502)
(503 501)
(502 504)
(505 503)
(504 506)
(507 505)
(506 508)
(509 507)
(508 510)
(511 509)
(510 512)
(512 513)
(514 511)
(515 514)
(513 516)
(516 517)
(518 515)
(517 519)
(520 518)
(519 521)
(522 520)
(521 523)
(524 522)
(523 525)
(526 524)
(525 527)
(528 526)
(527 529)
(530 528)
(529 531)
(532 530)
(531 533)
(534 532)
(533 535)
(536 534)
(535 537)
(538 536)
(537 539)
(540 538)
(539 541)
(542 540)
(541 441)
(444 542)
(543 544)
(544 545)
(545 546)
(547 543)
(546 548)
(549 547)
(548 550)
(551 549)
(552 551)
(550 553)
(554 552)
(553 555)
(556 554)
(555 557)
(558 556)
(557 559)
(560 558)
(561 560)
(559 562)
(563 561)
(564 563)
(562 565)
(566 564)
(565 567)
(568 566)
(567 569)
(570 568)
(571 570)
(569 572)
(573 571)
(572 574)
(575 573)
(574 576)
(577 575)
(578 577)
(576 579)
(580 578)
(579 581)
(582 580)
(581 583)
(584 582)
(583 585)
(586 584)
(585 587)
(588 586)
(589 588)
(587 590)
(591 589)
(590 592)
(593 591)
(594 593)
(592 595)
(596 594)
(595 597)
(598 596)
(597 599)
(600 598)
(601 600)
(599 602)
(603 601)
(602 604)
(605 603)
(604 606)
(607 605)
(608 607)
(606 609)
(610 608)
(611 610)
(609 612)
(613 611)
(612 614)
(615 613)
(616 615)
(614 617)
(618 616)
(619 618)
(617 620)
(621 619)
(620 622)
(623 621)
(624 623)
(622 625)
(626 624)
(627 626)
(625 628)
(629 627)
(628 630)
(631 629)
(632 631)
(630 633)
(634 632)
(633 635)
(636 634)
(637 636)
(635 638)
(639 637)
(638 640)
(641 639)
(640 642)
(643 641)
(642 644)
(645 643)
(644 646)
(647 645)
(646 648)
(649 647)
(648 650)
(651 649)
(650 652)
(653 651)
(652 654)
(655 653)
(654 656)
(657 655)
(656 658)
(659 657)
(658 660)
(660 492)
(495 659)
)

// concaveStart mixedStart nonFeatureStart
0 0 0
// internalStart flatStart openStart multipleStart
0 0 0 661
// normals

661
(
(0.903199 0.0494251 0.426367)
(0.887478 0.0467423 0.458473)
(0.903346 0.0496529 0.426029)
(0.904728 0.0497726 0.423072)
(0.884781 0.0481636 0.463512)
(0.90474 0.0497365 0.42305)
(0.891732 0.0229694 0.45198)
(0.917251 0.0526676 0.394812)
(0.893195 0.0196155 0.449241)
(0.91895 0.0510965 0.391049)
(0.887587 0.0180364 0.460287)
(0.892859 -0.000933214 0.450335)
(0.885462 -0.000808877 0.46471)
(0.91912 0.0507916 0.39069)
(0.890727 -0.0197268 0.45411)
(0.919115 0.0508514 0.390694)
(0.88675 -0.0493774 0.459604)
(0.89088 -0.0250212 0.453548)
(0.918892 0.0485522 0.39151)
(0.889851 -0.0390839 0.454574)
(0.919065 0.0477814 0.391199)
(0.890136 -0.0390948 0.454016)
(0.889552 -0.0402242 0.45506)
(0.917413 0.0446948 0.395419)
(0.890885 -0.0415633 0.452324)
(0.891003 -0.0418963 0.45206)
(0.917392 0.0409669 0.395871)
(0.891556 -0.0416655 0.450991)
(0.89245 -0.0307369 0.450099)
(0.922874 0.0353595 0.383476)
(0.893806 -0.0199515 0.44801)
(0.923392 0.0322305 0.382502)
(0.893456 -0.0197819 0.448714)
(0.913667 0.034627 0.404986)
(0.892848 -0.029127 0.449416)
(0.894072 -0.0295215 0.446949)
(0.915708 0.030142 0.400711)
(0.894827 -0.0214915 0.445895)
(0.894769 -0.00481008 0.446503)
(0.919373 0.0214348 0.392803)
(0.894407 -0.0279039 0.446383)
(0.911118 0.0304801 0.411018)
(0.894873 -0.0282374 0.445426)
(0.895624 -0.00959628 0.444709)
(0.920467 0.0171057 0.390446)
(0.920356 0.0153282 0.390782)
(0.895724 -0.034088 0.443302)
(0.894994 -0.0337198 0.444802)
(0.927108 0.00528336 0.374757)
(0.895497 -0.035948 0.443614)
(0.896886 -0.0261403 0.441488)
(0.919925 0.0148879 0.391812)
(0.895767 -0.0104693 0.4444)
(0.915472 0.0214062 0.401812)
(0.896913 -0.00997553 0.442094)
(0.896825 -0.000928193 0.442385)
(0.925484 0.00430632 0.378762)
(0.896786 -0.0240735 0.44181)
(0.920547 0.0111685 0.390471)
(0.896487 -0.0048307 0.443043)
(0.8971 -0.0101166 0.441712)
(0.920406 0.0109268 0.390812)
(0.897439 -0.00957469 0.441034)
(0.920414 0.00814908 0.39086)
(0.897176 -0.0108182 0.441542)
(0.897462 -0.00840718 0.441012)
(0.924491 0.00161084 0.381201)
(0.898043 -0.000328749 0.439908)
(0.923965 0.000994058 0.382476)
(0.89788 -0.00711337 0.440183)
(0.89791 -0.00707748 0.440122)
(0.920783 0.00677567 0.390016)
(0.89769 -0.00250319 0.44062)
(0.925065 -0.00163959 0.379804)
(0.898724 -0.00662193 0.438466)
(0.898309 -0.00578269 0.439327)
(0.924936 -0.00221613 0.380117)
(0.898329 -0.00577281 0.439286)
(0.925734 -0.00770434 0.378097)
(0.898678 -0.00440393 0.438588)
(0.898685 -0.00433433 0.438573)
(0.925705 -0.00754579 0.37817)
(0.898703 -0.00402224 0.43854)
(0.898339 0.00569617 0.439266)
(0.925706 -0.00618482 0.378194)
(0.898856 0.00496601 0.438215)
(0.924793 -0.0076068 0.380394)
(0.898042 0.00403116 0.439891)
(0.898359 0.00573352 0.439225)
(0.925997 -0.0127108 0.377316)
(0.897714 0.0154998 0.440306)
(0.897194 0.0160975 0.441344)
(0.925997 -0.012526 0.377322)
(0.8985 0.0180542 0.438602)
(0.895985 0.0248617 0.443387)
(0.925336 -0.0136748 0.378901)
(0.897284 0.0260508 0.440684)
(0.920694 -0.00797777 0.390203)
(0.897322 0.0294496 0.440394)
(0.916306 0.00311012 0.400467)
(0.910072 0.0150131 0.414178)
(0.90213 0.0164553 0.43115)
(0.904083 0.0179972 0.426977)
(0.908915 0.0136912 0.416757)
(0.917826 0.0501147 0.393806)