/*--------------------------------*- C++ -*----------------------------------*\
  =========                 |
  \\      /  F ield         | OpenFOAM: The Open Source CFD Toolbox
   \\    /   O peration     | Website:  https://openfoam.org
    \\  /    A nd           | Version:  11
     \\/     M anipulation  |
\*---------------------------------------------------------------------------*/
FoamFile
{
    format      ascii;
    class       extendedFeatureEdgeMesh;
    location    "constant/extendedFeatureEdgeMesh";
    object      Outlet4s.extendedFeatureEdgeMesh;
}
// * * * * * * * * * * * * * * * * * * * * * * * * * * * * * * * * * * * * * //

// points

658
(
(0.641418 0.530567 0.79327)
(0.641591 0.530742 0.792858)
(0.641232 0.530426 0.793691)
(0.641036 0.530313 0.794115)
(0.640836 0.530217 0.794541)
(0.640624 0.530124 0.794989)
(0.640411 0.530036 0.795438)
(0.640197 0.529952 0.795887)
(0.639982 0.529873 0.796336)
(0.639767 0.529798 0.796786)
(0.639551 0.529727 0.797236)
(0.628507 0.531672 0.818646)
(0.628712 0.531325 0.818342)
(0.628306 0.532031 0.818937)
(0.628102 0.532403 0.819227)
(0.6279 0.532778 0.819514)
(0.627699 0.533157 0.819797)
(0.626196 0.657217 0.784884)
(0.62599 0.657572 0.785185)
(0.625782 0.657924 0.78549)
(0.625363 0.658614 0.786111)
(0.625151 0.658953 0.786427)
(0.624938 0.659288 0.786746)
(0.624736 0.659599 0.787052)
(0.624533 0.6599 0.787368)
(0.624328 0.660182 0.787698)
(0.613605 0.660722 0.808892)
(0.613392 0.660634 0.809341)
(0.61318 0.660541 0.809789)
(0.612969 0.660443 0.810236)
(0.612759 0.660339 0.810682)
(0.612551 0.660228 0.811128)
(0.612347 0.660104 0.811573)
(0.612149 0.659959 0.812014)
(0.611962 0.659784 0.812449)
(0.641752 0.530956 0.792458)
(0.641898 0.531205 0.792074)
(0.642032 0.531487 0.791709)
(0.642156 0.531793 0.79136)
(0.642274 0.532117 0.791025)
(0.642387 0.532452 0.790699)
(0.642504 0.532812 0.790358)
(0.642619 0.533175 0.79002)
(0.642731 0.533543 0.789685)
(0.642841 0.533914 0.789354)
(0.642949 0.534289 0.789027)
(0.643055 0.534668 0.788703)
(0.643158 0.53505 0.788383)
(0.639334 0.52966 0.797687)
(0.643258 0.535436 0.788066)
(0.639117 0.529597 0.798137)
(0.643357 0.535826 0.787753)
(0.638899 0.529538 0.798588)
(0.643452 0.536219 0.787443)
(0.63868 0.529482 0.799039)
(0.643546 0.536615 0.787137)
(0.638461 0.52943 0.79949)
(0.643637 0.537015 0.786835)
(0.638241 0.529382 0.799942)
(0.643725 0.537419 0.786536)
(0.638021 0.529336 0.800393)
(0.643812 0.537825 0.786242)
(0.6378 0.529294 0.800844)
(0.643896 0.538234 0.785951)
(0.637578 0.529256 0.801296)
(0.637356 0.52922 0.801747)
(0.643977 0.538647 0.785663)
(0.644056 0.539063 0.78538)
(0.637134 0.529188 0.802199)
(0.644134 0.539487 0.785098)
(0.636911 0.529159 0.80265)
(0.636688 0.529132 0.803102)
(0.644206 0.539917 0.784824)
(0.636464 0.529109 0.803553)
(0.644271 0.540356 0.784561)
(0.63624 0.529089 0.804005)
(0.644327 0.540805 0.784315)
(0.636016 0.529072 0.804456)
(0.644371 0.541265 0.784088)
(0.635791 0.529058 0.804907)
(0.635565 0.529047 0.805358)
(0.644402 0.541737 0.783884)
(0.63534 0.529039 0.805809)
(0.644418 0.542219 0.783705)
(0.635114 0.529034 0.80626)
(0.64442 0.542711 0.783552)
(0.634887 0.529032 0.806711)
(0.634661 0.529033 0.807161)
(0.644407 0.543211 0.783427)
(0.634433 0.529038 0.807611)
(0.634206 0.529045 0.808061)
(0.64438 0.543715 0.783328)
(0.633978 0.529056 0.808511)
(0.644341 0.544223 0.783252)
(0.633749 0.529071 0.80896)
(0.633521 0.529089 0.809409)
(0.644291 0.544733 0.783196)
(0.633291 0.52911 0.809858)
(0.633062 0.529135 0.810306)
(0.644232 0.545243 0.783157)
(0.632832 0.529164 0.810754)
(0.644169 0.545754 0.783128)
(0.632601 0.529197 0.811202)
(0.63237 0.529233 0.811648)
(0.644102 0.546264 0.783105)
(0.632139 0.529274 0.812095)
(0.644036 0.546758 0.783084)
(0.631907 0.52932 0.81254)
(0.631675 0.52937 0.812985)
(0.643971 0.547252 0.783064)
(0.631442 0.529425 0.813429)
(0.631209 0.529484 0.813872)
(0.643906 0.547746 0.783043)
(0.630976 0.529549 0.814315)
(0.64384 0.54824 0.783022)
(0.630742 0.529619 0.814756)
(0.643775 0.548734 0.783001)
(0.630508 0.529697 0.815196)
(0.630274 0.529788 0.815634)
(0.64371 0.549228 0.782981)
(0.630041 0.529902 0.816067)
(0.643644 0.549722 0.78296)
(0.62981 0.530045 0.816492)
(0.643579 0.550216 0.78294)
(0.629581 0.530225 0.816904)
(0.629357 0.530444 0.817298)
(0.643513 0.55071 0.782919)
(0.629136 0.530704 0.81767)
(0.643448 0.551204 0.782899)
(0.628921 0.531 0.818018)
(0.643382 0.551698 0.782879)
(0.643317 0.552192 0.782858)
(0.643251 0.552685 0.782838)
(0.643186 0.55318 0.782818)
(0.64312 0.553673 0.782798)
(0.643054 0.554167 0.782778)
(0.642989 0.554661 0.782758)
(0.642923 0.555155 0.782738)
(0.6275 0.53354 0.820076)
(0.642857 0.555649 0.782718)
(0.627302 0.533927 0.820351)
(0.642792 0.556143 0.782698)
(0.627106 0.534317 0.820621)
(0.642726 0.556637 0.782678)
(0.626911 0.53471 0.820888)
(0.64266 0.557131 0.782658)
(0.642594 0.557625 0.782639)
(0.626717 0.535107 0.821151)
(0.642529 0.558119 0.782619)
(0.626525 0.535508 0.821409)
(0.642463 0.558613 0.782599)
(0.626335 0.535911 0.821663)
(0.642397 0.559107 0.78258)
(0.626146 0.536319 0.821913)
(0.642331 0.559601 0.78256)
(0.625959 0.536729 0.822159)
(0.642265 0.560095 0.782541)
(0.625773 0.537143 0.822401)
(0.642199 0.560589 0.782522)
(0.625589 0.53756 0.822639)
(0.642133 0.561083 0.782503)
(0.642067 0.561577 0.782483)
(0.625407 0.537979 0.822872)
(0.642001 0.562071 0.782464)
(0.625226 0.538402 0.823101)
(0.641935 0.562565 0.782445)
(0.625047 0.538828 0.823326)
(0.641869 0.563059 0.782426)
(0.624872 0.539254 0.823544)
(0.641803 0.563553 0.782407)
(0.624701 0.539687 0.823753)
(0.641737 0.564047 0.782388)
(0.624536 0.540128 0.823947)
(0.641671 0.564541 0.782369)
(0.624378 0.54058 0.824121)
(0.641605 0.565034 0.78235)
(0.641539 0.565528 0.782331)
(0.624231 0.541044 0.824273)
(0.641472 0.566022 0.782313)
(0.624095 0.541518 0.824399)
(0.641406 0.566516 0.782294)
(0.623972 0.542003 0.824498)
(0.64134 0.56701 0.782275)
(0.62386 0.542494 0.824571)
(0.641273 0.567504 0.782256)
(0.62376 0.542992 0.824619)
(0.641207 0.567998 0.782238)
(0.62367 0.543493 0.824646)
(0.641141 0.568492 0.782219)
(0.623589 0.543995 0.824656)
(0.641075 0.568986 0.782201)
(0.623513 0.544499 0.824653)
(0.641008 0.56948 0.782183)
(0.62344 0.545004 0.824644)
(0.640942 0.569974 0.782164)
(0.623369 0.545499 0.824634)
(0.640875 0.570468 0.782146)
(0.623298 0.545995 0.824624)
(0.640809 0.570962 0.782128)
(0.623227 0.546491 0.824614)
(0.640742 0.571456 0.78211)
(0.623157 0.546987 0.824604)
(0.640676 0.57195 0.782092)
(0.623086 0.547482 0.824594)
(0.640609 0.572443 0.782074)
(0.623015 0.547978 0.824584)
(0.640543 0.572937 0.782056)
(0.622944 0.548474 0.824574)
(0.640476 0.573431 0.782038)
(0.622873 0.548969 0.824563)
(0.640409 0.573925 0.78202)
(0.622803 0.549465 0.824553)
(0.640343 0.574419 0.782002)
(0.622732 0.549961 0.824542)
(0.640276 0.574913 0.781984)
(0.622661 0.550457 0.824532)
(0.640209 0.575407 0.781967)
(0.622591 0.550952 0.824521)
(0.640143 0.575901 0.781949)
(0.62252 0.551448 0.824511)
(0.640076 0.576395 0.781931)
(0.62245 0.551944 0.8245)
(0.640009 0.576889 0.781914)
(0.622379 0.55244 0.824489)
(0.639942 0.577383 0.781896)
(0.622308 0.552935 0.824478)
(0.639875 0.577877 0.781879)
(0.622238 0.553431 0.824467)
(0.639809 0.57837 0.781861)
(0.622167 0.553927 0.824456)
(0.639742 0.578864 0.781844)
(0.622097 0.554422 0.824445)
(0.639675 0.579358 0.781827)
(0.622027 0.554918 0.824434)
(0.639608 0.579852 0.78181)
(0.621956 0.555414 0.824423)
(0.639541 0.580346 0.781792)
(0.621886 0.55591 0.824412)
(0.639474 0.58084 0.781775)
(0.621815 0.556406 0.824401)
(0.639407 0.581334 0.781758)
(0.621745 0.556901 0.82439)
(0.63934 0.581828 0.781741)
(0.639273 0.582322 0.781724)
(0.621675 0.557397 0.824378)
(0.639206 0.582815 0.781708)
(0.621605 0.557893 0.824367)
(0.639138 0.583309 0.781691)
(0.621534 0.558389 0.824355)
(0.639071 0.583803 0.781674)
(0.621464 0.558884 0.824344)
(0.639004 0.584297 0.781657)
(0.621394 0.55938 0.824332)
(0.638937 0.584791 0.78164)
(0.621324 0.559876 0.824321)
(0.638869 0.585285 0.781624)
(0.621254 0.560372 0.824309)
(0.638802 0.585779 0.781607)
(0.621184 0.560867 0.824297)
(0.638735 0.586273 0.781591)
(0.621114 0.561363 0.824285)
(0.638667 0.586766 0.781574)
(0.621043 0.561859 0.824273)
(0.6386 0.58726 0.781558)
(0.620973 0.562355 0.824261)
(0.638533 0.587754 0.781542)
(0.620903 0.562851 0.82425)
(0.638465 0.588248 0.781525)
(0.620833 0.563346 0.824237)
(0.638398 0.588742 0.781509)
(0.620763 0.563842 0.824225)
(0.63833 0.589236 0.781493)
(0.620693 0.564338 0.824213)
(0.638263 0.58973 0.781477)
(0.620624 0.564834 0.824201)
(0.638195 0.590224 0.781461)
(0.620554 0.56533 0.824189)
(0.638128 0.590717 0.781445)
(0.620484 0.565825 0.824176)
(0.63806 0.591211 0.781429)
(0.620414 0.566321 0.824164)
(0.637992 0.591705 0.781413)
(0.620344 0.566817 0.824151)
(0.637924 0.592199 0.781397)
(0.620274 0.567313 0.824139)
(0.637857 0.592693 0.781381)
(0.620205 0.567809 0.824127)
(0.637789 0.593187 0.781365)
(0.620135 0.568304 0.824114)
(0.637721 0.59368 0.78135)
(0.620065 0.5688 0.824101)
(0.637653 0.594174 0.781334)
(0.619996 0.569296 0.824089)
(0.637586 0.594668 0.781318)
(0.619926 0.569792 0.824076)
(0.637518 0.595162 0.781303)
(0.619857 0.570288 0.824063)
(0.63745 0.595656 0.781287)
(0.619787 0.570784 0.82405)
(0.637382 0.59615 0.781272)
(0.619717 0.571279 0.824037)
(0.637314 0.596643 0.781257)
(0.619648 0.571775 0.824024)
(0.637246 0.597137 0.781241)
(0.619578 0.572271 0.824011)
(0.637178 0.597631 0.781226)
(0.619509 0.572767 0.823998)
(0.63711 0.598125 0.781211)
(0.61944 0.573263 0.823985)
(0.637042 0.598619 0.781196)
(0.61937 0.573758 0.823972)
(0.636974 0.599112 0.781181)
(0.619301 0.574254 0.823958)
(0.636906 0.599606 0.781166)
(0.619231 0.57475 0.823945)
(0.636838 0.6001 0.781151)
(0.619162 0.575246 0.823932)
(0.636769 0.600594 0.781136)
(0.619093 0.575742 0.823918)
(0.636701 0.601088 0.781121)
(0.619023 0.576238 0.823905)
(0.636633 0.601581 0.781106)
(0.618954 0.576734 0.823891)
(0.636565 0.602075 0.781091)
(0.618885 0.577229 0.823878)
(0.636496 0.602569 0.781077)
(0.618816 0.577725 0.823864)
(0.636428 0.603063 0.781062)
(0.618747 0.578221 0.82385)
(0.63636 0.603557 0.781047)
(0.618677 0.578717 0.823837)
(0.636291 0.60405 0.781033)
(0.618608 0.579213 0.823823)
(0.636223 0.604544 0.781018)
(0.618539 0.579709 0.823809)
(0.636154 0.605038 0.781004)
(0.61847 0.580205 0.823795)
(0.636086 0.605532 0.78099)
(0.618401 0.580701 0.823781)
(0.636017 0.606026 0.780975)
(0.618332 0.581196 0.823767)
(0.635949 0.606519 0.780961)
(0.618263 0.581692 0.823753)
(0.63588 0.607013 0.780947)
(0.618194 0.582188 0.823739)
(0.635812 0.607507 0.780933)
(0.618125 0.582684 0.823725)
(0.635743 0.608001 0.780919)
(0.618057 0.58318 0.823711)
(0.635674 0.608495 0.780904)
(0.617988 0.583676 0.823696)
(0.635606 0.608988 0.78089)
(0.617919 0.584172 0.823682)
(0.635537 0.609482 0.780877)
(0.61785 0.584668 0.823667)
(0.635468 0.609976 0.780863)
(0.617781 0.585164 0.823653)
(0.635399 0.610469 0.780849)
(0.617713 0.585659 0.823639)
(0.635331 0.610963 0.780835)
(0.617644 0.586155 0.823624)
(0.635262 0.611457 0.780821)
(0.617575 0.586651 0.823609)
(0.635193 0.611951 0.780808)
(0.617506 0.587147 0.823595)
(0.635124 0.612445 0.780794)
(0.617438 0.587643 0.82358)
(0.635055 0.612938 0.78078)
(0.617369 0.588139 0.823565)
(0.634986 0.613432 0.780767)
(0.617301 0.588635 0.823551)
(0.634917 0.613926 0.780753)
(0.617232 0.589131 0.823536)
(0.634848 0.614419 0.78074)
(0.617164 0.589627 0.823521)
(0.634779 0.614913 0.780727)
(0.617095 0.590123 0.823506)
(0.63471 0.615407 0.780714)
(0.617027 0.590619 0.823491)
(0.634641 0.615901 0.7807)
(0.616958 0.591114 0.823476)
(0.634572 0.616394 0.780687)
(0.61689 0.59161 0.823461)
(0.634503 0.616888 0.780674)
(0.616821 0.592106 0.823445)
(0.634434 0.617382 0.780661)
(0.616753 0.592602 0.82343)
(0.634365 0.617875 0.780648)
(0.616685 0.593098 0.823415)
(0.634295 0.618369 0.780635)
(0.616616 0.593594 0.8234)
(0.634226 0.618863 0.780622)
(0.616548 0.59409 0.823384)
(0.634157 0.619357 0.780609)
(0.61648 0.594586 0.823369)
(0.634088 0.61985 0.780596)
(0.616412 0.595082 0.823353)
(0.634018 0.620344 0.780584)
(0.616344 0.595578 0.823338)
(0.633949 0.620838 0.780571)
(0.616275 0.596074 0.823322)
(0.63388 0.621331 0.780558)
(0.616207 0.59657 0.823307)
(0.63381 0.621825 0.780546)
(0.616139 0.597066 0.823291)
(0.633741 0.622319 0.780533)
(0.616071 0.597562 0.823275)
(0.633671 0.622813 0.780521)
(0.616003 0.598058 0.82326)
(0.633602 0.623306 0.780508)
(0.615935 0.598554 0.823244)
(0.633532 0.6238 0.780496)
(0.615867 0.59905 0.823228)
(0.633463 0.624294 0.780484)
(0.615799 0.599545 0.823212)
(0.633393 0.624787 0.780471)
(0.615731 0.600042 0.823196)
(0.633324 0.625281 0.780459)
(0.615663 0.600537 0.82318)
(0.633254 0.625775 0.780447)
(0.615595 0.601033 0.823164)
(0.633184 0.626268 0.780435)
(0.615528 0.601529 0.823147)
(0.633115 0.626762 0.780423)
(0.61546 0.602025 0.823131)
(0.633045 0.627256 0.780411)
(0.615392 0.602521 0.823115)
(0.632975 0.627749 0.780399)
(0.615324 0.603017 0.823099)
(0.632906 0.628243 0.780387)
(0.615256 0.603513 0.823082)
(0.632836 0.628737 0.780375)
(0.615189 0.604009 0.823066)
(0.632766 0.62923 0.780364)
(0.615121 0.604505 0.823049)
(0.632696 0.629724 0.780352)
(0.615053 0.605001 0.823033)
(0.632626 0.630218 0.78034)
(0.614986 0.605497 0.823016)
(0.632557 0.630711 0.780329)
(0.614918 0.605993 0.823)
(0.632487 0.631205 0.780317)
(0.614851 0.606489 0.822983)
(0.632417 0.631699 0.780306)
(0.614783 0.606985 0.822966)
(0.632347 0.632192 0.780294)
(0.614716 0.607481 0.822949)
(0.632277 0.632686 0.780283)
(0.614648 0.607977 0.822932)
(0.632207 0.63318 0.780272)
(0.614581 0.608473 0.822916)
(0.632137 0.633673 0.78026)
(0.614513 0.608969 0.822899)
(0.632067 0.634167 0.780249)
(0.614446 0.609465 0.822882)
(0.631997 0.634661 0.780238)
(0.614378 0.609961 0.822865)
(0.631927 0.635154 0.780227)
(0.614311 0.610457 0.822847)
(0.631857 0.635648 0.780216)
(0.614244 0.610953 0.82283)
(0.631786 0.636142 0.780205)
(0.614177 0.611449 0.822813)
(0.631716 0.636635 0.780194)
(0.614109 0.611945 0.822796)
(0.631646 0.637129 0.780183)
(0.614042 0.612441 0.822779)
(0.631576 0.637622 0.780172)
(0.613975 0.612937 0.822761)
(0.631506 0.638116 0.780162)
(0.613908 0.613433 0.822744)
(0.631436 0.63861 0.780151)
(0.613841 0.613929 0.822726)
(0.631365 0.639103 0.78014)
(0.613773 0.614425 0.822709)
(0.631295 0.639597 0.78013)
(0.613706 0.614921 0.822691)
(0.631225 0.640091 0.780119)
(0.613639 0.615417 0.822673)
(0.631154 0.640584 0.780109)
(0.613572 0.615913 0.822656)
(0.631084 0.641078 0.780098)
(0.613505 0.616409 0.822638)
(0.631014 0.641571 0.780088)
(0.613438 0.616905 0.82262)
(0.630943 0.642065 0.780078)
(0.613371 0.617401 0.822602)
(0.630873 0.642559 0.780067)
(0.613304 0.617898 0.822584)
(0.630802 0.643052 0.780057)
(0.613237 0.618393 0.822566)
(0.630732 0.643546 0.780047)
(0.61317 0.61889 0.822548)
(0.630661 0.644039 0.780037)
(0.613104 0.619386 0.82253)
(0.630591 0.644533 0.780027)
(0.613037 0.619882 0.822512)
(0.630521 0.645027 0.780017)
(0.61297 0.620378 0.822494)
(0.63045 0.64552 0.780007)
(0.612903 0.620874 0.822476)
(0.630379 0.646014 0.779997)
(0.612836 0.62137 0.822457)
(0.630306 0.646524 0.779988)
(0.61277 0.621866 0.822439)
(0.63023 0.647033 0.779985)
(0.612703 0.622362 0.822421)
(0.630148 0.647542 0.779993)
(0.612636 0.622858 0.822402)
(0.630058 0.648048 0.780017)
(0.61257 0.623354 0.822384)
(0.629958 0.648552 0.780061)
(0.612503 0.62385 0.822365)
(0.629847 0.64905 0.780129)
(0.612437 0.624346 0.822346)
(0.61237 0.624842 0.822328)
(0.629724 0.649541 0.780223)
(0.612304 0.625338 0.822309)
(0.629588 0.650023 0.780345)
(0.612237 0.625834 0.82229)
(0.62944 0.650493 0.780495)
(0.612171 0.62633 0.822271)
(0.629282 0.65095 0.78067)
(0.612104 0.626826 0.822252)
(0.629113 0.651395 0.780869)
(0.612038 0.627323 0.822233)
(0.628936 0.651826 0.781088)
(0.611971 0.627819 0.822214)
(0.628753 0.652246 0.781323)
(0.611905 0.628315 0.822195)
(0.628565 0.652657 0.781571)
(0.611839 0.62881 0.822176)
(0.611772 0.629307 0.822157)
(0.628374 0.65306 0.781827)
(0.611706 0.629803 0.822138)
(0.628183 0.653456 0.782086)
(0.61164 0.630299 0.822118)
(0.627991 0.653848 0.782348)
(0.611574 0.630795 0.822099)
(0.627797 0.654237 0.782614)
(0.611507 0.631291 0.82208)
(0.627602 0.654622 0.782884)
(0.611441 0.631787 0.82206)
(0.627405 0.655004 0.783158)
(0.611375 0.632283 0.822041)
(0.627207 0.655382 0.783436)
(0.611309 0.632779 0.822021)
(0.627008 0.655757 0.783718)
(0.611243 0.633275 0.822001)
(0.611177 0.633771 0.821982)
(0.626807 0.656127 0.784004)
(0.611111 0.634268 0.821962)
(0.626605 0.656494 0.784293)
(0.611045 0.634764 0.821942)
(0.626401 0.656858 0.784587)
(0.610979 0.63526 0.821922)
(0.610913 0.635756 0.821902)
(0.610847 0.636252 0.821882)
(0.610781 0.636748 0.821862)
(0.625573 0.658271 0.785799)
(0.610715 0.637244 0.821842)
(0.610649 0.63774 0.821822)
(0.610583 0.638236 0.821801)
(0.610518 0.638732 0.821781)
(0.610452 0.639228 0.821761)
(0.610386 0.639724 0.82174)
(0.61032 0.640221 0.82172)
(0.62412 0.660439 0.788047)
(0.610255 0.640717 0.821699)
(0.623908 0.660662 0.788416)
(0.610189 0.641213 0.821679)
(0.623693 0.660849 0.788804)
(0.610123 0.641709 0.821658)
(0.623475 0.660995 0.789206)
(0.610058 0.642205 0.821637)
(0.623254 0.661106 0.789618)
(0.623032 0.661188 0.790037)
(0.609992 0.642701 0.821616)
(0.62281 0.661252 0.790458)
(0.609927 0.643197 0.821595)
(0.622577 0.661312 0.790901)
(0.622344 0.661367 0.791345)
(0.609861 0.643693 0.821574)
(0.622112 0.661417 0.79179)
(0.609795 0.644189 0.821553)
(0.62188 0.661462 0.792236)
(0.621649 0.661504 0.792682)
(0.609729 0.644695 0.821531)
(0.621418 0.661541 0.793129)
(0.621187 0.661575 0.793576)
(0.609666 0.645199 0.821502)
(0.620957 0.661604 0.794024)
(0.609609 0.645703 0.821461)
(0.620727 0.66163 0.794472)
(0.620498 0.661652 0.794921)
(0.609561 0.646208 0.821403)
(0.620269 0.66167 0.79537)
(0.609523 0.64671 0.821323)
(0.62004 0.661685 0.795819)
(0.619812 0.661697 0.796268)
(0.609499 0.647208 0.82122)
(0.619584 0.661705 0.796718)
(0.609488 0.647701 0.82109)
(0.619357 0.66171 0.797168)
(0.61913 0.661712 0.797619)
(0.609492 0.648186 0.820934)
(0.618903 0.661711 0.798069)
(0.60951 0.648662 0.820753)
(0.618677 0.661706 0.79852)
(0.618451 0.661699 0.798971)
(0.609541 0.649128 0.82055)
(0.618226 0.661688 0.799422)
(0.609582 0.649585 0.820328)
(0.618001 0.661675 0.799873)
(0.609633 0.650034 0.820092)
(0.617776 0.661658 0.800324)
(0.617552 0.661639 0.800776)
(0.609688 0.650477 0.819847)
(0.617328 0.661616 0.801227)
(0.609748 0.650921 0.819595)
(0.617105 0.661591 0.801679)
(0.609809 0.651362 0.819339)
(0.616882 0.661562 0.80213)
(0.609873 0.6518 0.819079)
(0.61666 0.66153 0.802582)
(0.60994 0.652236 0.818814)
(0.616438 0.661495 0.803033)
(0.616217 0.661457 0.803485)
(0.610009 0.652669 0.818546)
(0.615996 0.661416 0.803936)
(0.610081 0.653099 0.818274)
(0.615776 0.661371 0.804388)
(0.610155 0.653526 0.817998)
(0.615556 0.661323 0.804839)
(0.610232 0.653949 0.817718)
(0.615336 0.661272 0.80529)
(0.615118 0.661217 0.805741)
(0.61031 0.65437 0.817434)
(0.6149 0.661158 0.806192)
(0.610392 0.654788 0.817146)
(0.614682 0.661096 0.806643)
(0.610476 0.655202 0.816854)
(0.614465 0.66103 0.807093)
(0.610562 0.655614 0.816558)
(0.614249 0.660959 0.807544)
(0.610651 0.656022 0.816259)
(0.614034 0.660885 0.807993)
(0.613819 0.660806 0.808443)
(0.610742 0.656426 0.815956)
(0.610835 0.656827 0.815648)
(0.610931 0.657225 0.815338)
(0.611029 0.657619 0.815023)
(0.611128 0.658002 0.814709)
(0.611235 0.658372 0.814383)
(0.611351 0.658721 0.814038)
(0.611481 0.659042 0.813671)
(0.611626 0.659328 0.813282)
(0.611787 0.659576 0.812873)
)

// edges

658
(
(0 1)
(2 0)
(3 2)
(4 3)
(5 4)
(6 5)
(7 6)
(8 7)
(9 8)
(10 9)
(11 12)
(13 11)
(14 13)
(15 14)
(16 15)
(17 18)
(18 19)
(20 21)
(21 22)
(22 23)
(23 24)
(24 25)
(26 27)
(27 28)
(28 29)
(29 30)
(30 31)
(31 32)
(32 33)
(33 34)
(35 36)
(1 35)
(36 37)
(37 38)
(38 39)
(39 40)
(40 41)
(41 42)
(42 43)
(43 44)
(44 45)
(45 46)
(46 47)
(48 10)
(47 49)
(50 48)
(49 51)
(52 50)
(51 53)
(54 52)
(53 55)
(56 54)
(55 57)
(58 56)
(57 59)
(60 58)
(59 61)
(62 60)
(61 63)
(64 62)
(65 64)
(63 66)
(66 67)
(68 65)
(67 69)
(70 68)
(71 70)
(69 72)
(73 71)
(72 74)
(75 73)
(74 76)
(77 75)
(76 78)
(79 77)
(80 79)
(78 81)
(82 80)
(81 83)
(84 82)
(83 85)
(86 84)
(87 86)
(85 88)
(89 87)
(90 89)
(88 91)
(92 90)
(91 93)
(94 92)
(95 94)
(93 96)
(97 95)
(98 97)
(96 99)
(100 98)
(99 101)
(102 100)
(103 102)
(101 104)
(105 103)
(104 106)
(107 105)
(108 107)
(106 109)
(110 108)
(111 110)
(109 112)
(113 111)
(112 114)
(115 113)
(114 116)
(117 115)
(118 117)
(116 119)
(120 118)
(119 121)
(122 120)
(121 123)
(124 122)
(125 124)
(123 126)
(127 125)
(126 128)
(129 127)
(128 130)
(12 129)
(130 131)
(131 132)
(132 133)
(133 134)
(134 135)
(135 136)
(136 137)
(138 16)
(137 139)
(140 138)
(139 141)
(142 140)
(141 143)
(144 142)
(143 145)
(145 146)
(147 144)
(146 148)
(149 147)
(148 150)
(151 149)
(150 152)
(153 151)
(152 154)
(155 153)
(154 156)
(157 155)
(156 158)
(159 157)
(158 160)
(160 161)
(162 159)
(161 163)
(164 162)
(163 165)
(166 164)
(165 167)
(168 166)
(167 169)
(170 168)
(169 171)
(172 170)
(171 173)
(174 172)
(173 175)
(175 176)
(177 174)
(176 178)
(179 177)
(178 180)
(181 179)
(180 182)
(183 181)
(182 184)
(185 183)
(184 186)
(187 185)
(186 188)
(189 187)
(188 190)
(191 189)
(190 192)
(193 191)
(192 194)
(195 193)
(194 196)
(197 195)
(196 198)
(199 197)
(198 200)
(201 199)
(200 202)
(203 201)
(202 204)
(205 203)
(204 206)
(207 205)
(206 208)
(209 207)
(208 210)
(211 209)
(210 212)
(213 211)
(212 214)
(215 213)
(214 216)
(217 215)
(216 218)
(219 217)
(218 220)
(221 219)
(220 222)
(223 221)
(222 224)
(225 223)
(224 226)
(227 225)
(226 228)
(229 227)
(228 230)
(231 229)
(230 232)
(233 231)
(232 234)
(235 233)
(234 236)
(237 235)
(236 238)
(239 237)
(238 240)
(241 239)
(240 242)
(242 243)
(244 241)
(243 245)
(246 244)
(245 247)
(248 246)
(247 249)
(250 248)
(249 251)
(252 250)
(251 253)
(254 252)
(253 255)
(256 254)
(255 257)
(258 256)
(257 259)
(260 258)
(259 261)
(262 260)
(261 263)
(264 262)
(263 265)
(266 264)
(265 267)
(268 266)
(267 269)
(270 268)
(269 271)
(272 270)
(271 273)
(274 272)
(273 275)
(276 274)
(275 277)
(278 276)
(277 279)
(280 278)
(279 281)
(282 280)
(281 283)
(284 282)
(283 285)
(286 284)
(285 287)
(288 286)
(287 289)
(290 288)
(289 291)
(292 290)
(291 293)
(294 292)
(293 295)
(296 294)
(295 297)
(298 296)
(297 299)
(300 298)
(299 301)
(302 300)
(301 303)
(304 302)
(303 305)
(306 304)
(305 307)
(308 306)
(307 309)
(310 308)
(309 311)
(312 310)
(311 313)
(314 312)
(313 315)
(316 314)
(315 317)
(318 316)
(317 319)
(320 318)
(319 321)
(322 320)
(321 323)
(324 322)
(323 325)
(326 324)
(325 327)
(328 326)
(327 329)
(330 328)
(329 331)
(332 330)
(331 333)
(334 332)
(333 335)
(336 334)
(335 337)
(338 336)
(337 339)
(340 338)
(339 341)
(342 340)
(341 343)
(344 342)
(343 345)
(346 344)
(345 347)
(348 346)
(347 349)
(350 348)
(349 351)
(352 350)
(351 353)
(354 352)
(353 355)
(356 354)
(355 357)
(358 356)
(357 359)
(360 358)
(359 361)
(362 360)
(361 363)
(364 362)
(363 365)
(366 364)
(365 367)
(368 366)
(367 369)
(370 368)
(369 371)
(372 370)
(371 373)
(374 372)
(373 375)
(376 374)
(375 377)
(378 376)
(377 379)
(380 378)
(379 381)
(382 380)
(381 383)
(384 382)
(383 385)
(386 384)
(385 387)
(388 386)
(387 389)
(390 388)
(389 391)
(392 390)
(391 393)
(394 392)
(393 395)
(396 394)
(395 397)
(398 396)
(397 399)
(400 398)
(399 401)
(402 400)
(401 403)
(404 402)
(403 405)
(406 404)
(405 407)
(408 406)
(407 409)
(410 408)
(409 411)
(412 410)
(411 413)
(414 412)
(413 415)
(416 414)
(415 417)
(418 416)
(417 419)
(420 418)
(419 421)
(422 420)
(421 423)
(424 422)
(423 425)
(426 424)
(425 427)
(428 426)
(427 429)
(430 428)
(429 431)
(432 430)
(431 433)
(434 432)
(433 435)
(436 434)
(435 437)
(438 436)
(437 439)
(440 438)
(439 441)
(442 440)
(441 443)
(444 442)
(443 445)
(446 444)
(445 447)
(448 446)
(447 449)
(450 448)
(449 451)
(452 450)
(451 453)
(454 452)
(453 455)
(456 454)
(455 457)
(458 456)
(457 459)
(460 458)
(459 461)
(462 460)
(461 463)
(464 462)
(463 465)
(466 464)
(465 467)
(468 466)
(467 469)
(470 468)
(469 471)
(472 470)
(471 473)
(474 472)
(473 475)
(476 474)
(475 477)
(478 476)
(477 479)
(480 478)
(479 481)
(482 480)
(481 483)
(484 482)
(483 485)
(486 484)
(485 487)
(488 486)
(487 489)
(490 488)
(489 491)
(492 490)
(491 493)
(494 492)
(493 495)
(496 494)
(495 497)
(498 496)
(497 499)
(500 498)
(499 501)
(502 500)
(501 503)
(504 502)
(503 505)
(506 504)
(505 507)
(508 506)
(507 509)
(510 508)
(509 511)
(512 510)
(511 513)
(514 512)
(515 514)
(513 516)
(517 515)
(516 518)
(519 517)
(518 520)
(521 519)
(520 522)
(523 521)
(522 524)
(525 523)
(524 526)
(527 525)
(526 528)
(529 527)
(528 530)
(531 529)
(532 531)
(530 533)
(534 532)
(533 535)
(536 534)
(535 537)
(538 536)
(537 539)
(540 538)
(539 541)
(542 540)
(541 543)
(544 542)
(543 545)
(546 544)
(545 547)
(548 546)
(549 548)
(547 550)
(551 549)
(550 552)
(553 551)
(552 554)
(555 553)
(554 17)
(556 555)
(557 556)
(558 557)
(19 559)
(560 558)
(559 20)
(561 560)
(562 561)
(563 562)
(564 563)
(565 564)
(566 565)
(25 567)
(568 566)
(567 569)
(570 568)
(569 571)
(572 570)
(571 573)
(574 572)
(573 575)
(575 576)
(577 574)
(576 578)
(579 577)
(578 580)
(580 581)
(582 579)
(581 583)
(584 582)
(583 585)
(585 586)
(587 584)
(586 588)
(588 589)
(590 587)
(589 591)
(592 590)
(591 593)
(593 594)
(595 592)
(594 596)
(597 595)
(596 598)
(598 599)
(600 597)
(599 601)
(602 600)
(601 603)
(603 604)
(605 602)
(604 606)
(607 605)
(606 608)
(608 609)
(610 607)
(609 611)
(612 610)
(611 613)
(614 612)
(613 615)
(615 616)
(617 614)
(616 618)
(619 617)
(618 620)
(621 619)
(620 622)
(623 621)
(622 624)
(625 623)
(624 626)
(626 627)
(628 625)
(627 629)
(630 628)
(629 631)
(632 630)
(631 633)
(634 632)
(633 635)
(635 636)
(637 634)
(636 638)
(639 637)
(638 640)
(641 639)
(640 642)
(643 641)
(642 644)
(645 643)
(644 646)
(646 647)
(648 645)
(647 26)
(649 648)
(650 649)
(651 650)
(652 651)
(653 652)
(654 653)
(655 654)
(656 655)
(34 657)
(657 656)
)

// concaveStart mixedStart nonFeatureStart
0 0 0
// internalStart flatStart openStart multipleStart
0 0 0 658
// normals

658
(
(0.874453 0.188091 0.447161)
(0.876058 0.180123 0.447302)
(0.87161 0.187473 0.452934)
(0.87209 0.188046 0.451771)
(0.8721 0.188037 0.451756)
(0.87309 0.186161 0.450619)
(0.873877 0.182292 0.450676)
(0.87393 0.182373 0.450539)
(0.876386 0.176462 0.448118)
(0.87623 0.176454 0.448426)
(0.89821 0.178695 0.401604)
(0.898613 0.178309 0.400874)
(0.898266 0.18003 0.400884)
(0.898311 0.175671 0.402711)
(0.898314 0.175707 0.402689)
(0.896701 0.176213 0.406049)
(0.896204 0.176969 0.406816)
(0.899323 0.199834 0.388954)
(0.898807 0.199946 0.390086)
(0.896923 0.189541 0.399503)
(0.897902 0.187413 0.398306)
(0.897099 0.179892 0.40355)
(0.87458 0.179999 0.450233)
(0.873799 0.181407 0.451184)
(0.873249 0.181809 0.452086)
(0.872886 0.180918 0.453144)
(0.872877 0.18252 0.452518)
(0.87494 0.177542 0.45051)
(0.867306 0.200816 0.455471)
(0.872501 0.188395 0.450831)
(0.886657 0.153082 0.436355)
(0.880638 0.166575 0.443542)
(0.892465 0.133523 0.430903)
(0.892067 0.131612 0.432313)
(0.89472 0.119187 0.43043)
(0.89461 0.117806 0.43104)
(0.895497 0.115963 0.429694)
(0.895635 0.116012 0.429393)
(0.891443 0.125131 0.435512)
(0.891446 0.124455 0.435701)
(0.890837 0.124502 0.436931)
(0.890789 0.124354 0.437071)
(0.889333 0.127986 0.438983)
(0.877297 0.172844 0.447745)
(0.889574 0.129388 0.438084)
(0.877487 0.172849 0.447369)
(0.890321 0.125336 0.437743)
(0.877686 0.173111 0.446878)
(0.887843 0.132875 0.440544)
(0.877342 0.17307 0.447568)
(0.887476 0.130817 0.441897)
(0.880139 0.162284 0.446115)
(0.888461 0.130087 0.440129)
(0.878435 0.172117 0.445788)
(0.890159 0.129512 0.436856)
(0.878329 0.172017 0.446036)
(0.888899 0.127972 0.439865)
(0.880237 0.161161 0.44633)
(0.888546 0.130479 0.439842)
(0.87878 0.170108 0.44588)
(0.878679 0.170011 0.446117)
(0.887355 0.133691 0.441279)
(0.886606 0.132937 0.443009)
(0.881762 0.158523 0.444258)
(0.886129 0.132423 0.444116)
(0.879131 0.168892 0.44565)
(0.879788 0.169542 0.444105)
(0.886099 0.134304 0.44361)
(0.881125 0.157988 0.445711)
(0.886008 0.134612 0.4437)
(0.882024 0.157666 0.444043)
(0.884081 0.134926 0.447432)
(0.881369 0.161775 0.443866)
(0.884647 0.135527 0.44613)
(0.8811 0.161309 0.44457)
(0.880631 0.161859 0.445299)
(0.884525 0.134841 0.446581)
(0.882428 0.158272 0.443025)
(0.884626 0.136294 0.445938)
(0.88212 0.157967 0.443746)
(0.883354 0.135855 0.448586)
(0.881622 0.158644 0.444495)
(0.882974 0.155076 0.443068)
(0.882984 0.135415 0.449446)
(0.882725 0.148916 0.445669)
(0.883045 0.154917 0.442981)
(0.882991 0.135575 0.449384)
(0.882893 0.154258 0.443514)
(0.883277 0.134947 0.449011)
(0.88224 0.154221 0.444824)
(0.883846 0.151012 0.442732)
(0.882625 0.135987 0.449979)
(0.881912 0.157239 0.444417)
(0.883838 0.148777 0.443503)
(0.882795 0.136489 0.449493)
(0.883777 0.146912 0.444246)
(0.883245 0.134367 0.449249)
(0.88365 0.145851 0.444849)
(0.883289 0.145103 0.445809)
(0.881841 0.136214 0.451445)
(0.88447 0.143975 0.443828)
(0.880849 0.136953 0.453154)
(0.883153 0.147673 0.445233)
(0.884365 0.140114 0.445271)
(0.885661 0.134442 0.444443)
(0.883774 0.140259 0.446397)
(0.884568 0.129822 0.447979)
(0.882158 0.135283 0.451105)
(0.88523 0.131093 0.446299)
(0.88418 0.137117 0.446569)
(0.884095 0.132355 0.448172)
(0.883061 0.135326 0.449321)
(0.884779 0.13007 0.447491)
(0.885571 0.128298 0.446434)
(0.882939 0.134357 0.449853)
(0.887019 0.127792 0.443697)
(0.881856 0.137054 0.451161)
(0.888934 0.137753 0.43683)
(0.884364 0.13443 0.447022)
(0.890013 0.136875 0.434905)
(0.892803 0.147353 0.425663)
(0.880565 0.136884 0.453726)
(0.893702 0.159521 0.419344)
(0.883385 0.134432 0.448953)
(0.896788 0.172453 0.407469)
(0.884041 0.136205 0.447124)
(0.897293 0.171551 0.406736)
(0.884158 0.135394 0.447138)
(0.885741 0.136554 0.44364)
(0.884154 0.134215 0.447502)
(0.884585 0.136494 0.445958)
(0.884681 0.136202 0.445858)
(0.886053 0.134621 0.443607)
(0.883786 0.136192 0.447632)
(0.898743 0.173728 0.402591)
(0.885166 0.136211 0.444892)
(0.898739 0.173729 0.402599)