/*--------------------------------*- C++ -*----------------------------------*\
  =========                 |
  \\      /  F ield         | OpenFOAM: The Open Source CFD Toolbox
   \\    /   O peration     | Website:  https://openfoam.org
    \\  /    A nd           | Version:  11
     \\/     M anipulation  |
\*---------------------------------------------------------------------------*/
FoamFile
{
    format      ascii;
    class       extendedFeatureEdgeMesh;
    location    "constant/extendedFeatureEdgeMesh";
    object      Outlet3s.extendedFeatureEdgeMesh;
}
// * * * * * * * * * * * * * * * * * * * * * * * * * * * * * * * * * * * * * //

// points

658
(
(0.636872 0.055677 0.798019)
(0.637071 0.0559161 0.797668)
(0.636643 0.055594 0.798445)
(0.637268 0.0561808 0.797335)
(0.636412 0.0555084 0.798869)
(0.636179 0.0554207 0.799291)
(0.637463 0.0564635 0.797016)
(0.635945 0.0553308 0.799712)
(0.637657 0.0567555 0.796705)
(0.635735 0.0552714 0.800145)
(0.637868 0.057078 0.796371)
(0.635527 0.055226 0.800579)
(0.638077 0.0574049 0.796041)
(0.635301 0.0551842 0.80105)
(0.638286 0.0577361 0.795715)
(0.635075 0.0551476 0.801521)
(0.638493 0.0580715 0.795392)
(0.634849 0.0551158 0.801992)
(0.638698 0.0584111 0.795073)
(0.634623 0.0550888 0.802463)
(0.638903 0.0587548 0.794758)
(0.634397 0.0550662 0.802935)
(0.634171 0.0550479 0.803407)
(0.639107 0.0591026 0.794446)
(0.633945 0.0550337 0.803878)
(0.639309 0.0594543 0.794138)
(0.633719 0.0550234 0.804351)
(0.63951 0.05981 0.793834)
(0.633493 0.0550168 0.804823)
(0.63971 0.0601696 0.793534)
(0.633267 0.0550139 0.805295)
(0.639909 0.060533 0.793237)
(0.633095 0.0550139 0.805656)
(0.640106 0.0609002 0.792944)
(0.632922 0.0550153 0.806016)
(0.632702 0.0550197 0.806477)
(0.640302 0.0612711 0.792655)
(0.632482 0.0550276 0.806937)
(0.640497 0.0616457 0.79237)
(0.640691 0.0620239 0.792089)
(0.632262 0.0550389 0.807397)
(0.632043 0.0550536 0.807858)
(0.640883 0.0624057 0.791812)
(0.631824 0.0550715 0.808319)
(0.641073 0.062791 0.791538)
(0.631606 0.0550927 0.80878)
(0.641263 0.0631799 0.79127)
(0.631388 0.055117 0.80924)
(0.631171 0.0551446 0.809701)
(0.641449 0.0635755 0.79101)
(0.630954 0.0551752 0.810162)
(0.641631 0.0639807 0.790761)
(0.630738 0.055209 0.810623)
(0.641807 0.0643976 0.790528)
(0.630522 0.0552459 0.811084)
(0.641976 0.0648277 0.790315)
(0.630307 0.0552859 0.811545)
(0.630092 0.055329 0.812006)
(0.642139 0.0652795 0.790121)
(0.629877 0.0553753 0.812467)
(0.642292 0.065745 0.789953)
(0.629664 0.0554248 0.812927)
(0.62945 0.0554775 0.813388)
(0.642434 0.0662232 0.789813)
(0.642563 0.066712 0.7897)
(0.629237 0.0555334 0.813849)
(0.629025 0.0555927 0.814309)
(0.628814 0.0556553 0.814769)
(0.642681 0.067209 0.789614)
(0.628603 0.0557212 0.815229)
(0.62841 0.0557841 0.815649)
(0.642789 0.0677121 0.789553)
(0.628216 0.0558494 0.816071)
(0.628015 0.0559198 0.816508)
(0.642886 0.0682192 0.789512)
(0.627815 0.0559932 0.816944)
(0.642976 0.0687288 0.789488)
(0.627615 0.0560698 0.817381)
(0.627415 0.0561496 0.817816)
(0.643061 0.0692397 0.789475)
(0.627216 0.0562328 0.818252)
(0.627017 0.0563196 0.818687)
(0.643143 0.0697513 0.789468)
(0.626819 0.0564101 0.819121)
(0.626621 0.0565045 0.819555)
(0.643222 0.0702489 0.789462)
(0.626423 0.0566029 0.819987)
(0.643301 0.0707465 0.789457)
(0.626226 0.0567054 0.82042)
(0.626029 0.0568122 0.820851)
(0.64338 0.0712441 0.789452)
(0.625812 0.0569398 0.82133)
(0.643459 0.0717418 0.789446)
(0.625599 0.0570874 0.821805)
(0.62544 0.0572518 0.822244)
(0.643538 0.0722394 0.789441)
(0.625278 0.0574074 0.822685)
(0.643617 0.0727371 0.789436)
(0.625113 0.0575543 0.823128)
(0.62494 0.0576915 0.823572)
(0.643696 0.0732347 0.789431)
(0.624813 0.0579873 0.823943)
(0.643775 0.0737324 0.789426)
(0.624701 0.058314 0.824293)
(0.643854 0.07423 0.78942)
(0.624601 0.0586658 0.824622)
(0.643933 0.0747277 0.789416)
(0.62451 0.0590363 0.824932)
(0.644011 0.0752253 0.789411)
(0.624426 0.0594189 0.82523)
(0.64409 0.075723 0.789406)
(0.624341 0.0598231 0.825535)
(0.644169 0.0762206 0.789401)
(0.624259 0.0602307 0.825837)
(0.644248 0.0767183 0.789396)
(0.624178 0.0606417 0.826135)
(0.644327 0.077216 0.789391)
(0.644405 0.0777137 0.789387)
(0.624101 0.0610558 0.826429)
(0.644484 0.0782114 0.789382)
(0.624025 0.0614732 0.826719)
(0.644563 0.0787091 0.789378)
(0.623952 0.0618937 0.827005)
(0.644641 0.0792067 0.789373)
(0.623881 0.0623174 0.827287)
(0.64472 0.0797044 0.789369)
(0.623813 0.062744 0.827565)
(0.644799 0.0802021 0.789365)
(0.623746 0.0631737 0.827839)
(0.644877 0.0806999 0.78936)
(0.623683 0.0636063 0.828108)
(0.644956 0.0811976 0.789356)
(0.623622 0.0640417 0.828374)
(0.645034 0.0816953 0.789352)
(0.623563 0.0644799 0.828636)
(0.645113 0.082193 0.789348)
(0.645191 0.0826907 0.789344)
(0.623506 0.0649209 0.828893)
(0.64527 0.0831885 0.78934)
(0.623452 0.0653646 0.829147)
(0.645348 0.0836862 0.789336)
(0.623401 0.065811 0.829396)
(0.645427 0.0841839 0.789332)
(0.623352 0.0662599 0.829641)
(0.645505 0.0846817 0.789328)
(0.623305 0.0667114 0.829882)
(0.645583 0.0851794 0.789324)
(0.623267 0.0671025 0.830085)
(0.645662 0.0856771 0.78932)
(0.623233 0.0674973 0.830282)
(0.64574 0.0861749 0.789317)
(0.623204 0.0678974 0.830469)
(0.645818 0.0866727 0.789313)
(0.623183 0.0683038 0.830643)
(0.645897 0.0871704 0.78931)
(0.62317 0.0687575 0.830815)
(0.645975 0.0876682 0.789306)
(0.623169 0.0692191 0.830966)
(0.646053 0.088166 0.789303)
(0.623181 0.0696876 0.831093)
(0.646131 0.0886637 0.789299)
(0.623205 0.0701616 0.831195)
(0.64621 0.0891615 0.789296)
(0.623241 0.0706394 0.831274)
(0.646288 0.0896593 0.789293)
(0.623288 0.0711193 0.831331)
(0.646366 0.0901571 0.78929)
(0.623344 0.0716002 0.831369)
(0.646444 0.0906549 0.789287)
(0.623407 0.0720811 0.831391)
(0.646522 0.0911527 0.789284)
(0.623476 0.0725617 0.831404)
(0.6466 0.0916505 0.789281)
(0.623546 0.0730421 0.83141)
(0.646678 0.0921483 0.789278)
(0.62362 0.0735377 0.831416)
(0.646756 0.0926461 0.789275)
(0.623693 0.0740332 0.831422)
(0.646834 0.0931439 0.789272)
(0.623767 0.0745288 0.831427)
(0.646912 0.0936417 0.789269)
(0.623841 0.0750244 0.831433)
(0.64699 0.0941395 0.789266)
(0.623914 0.07552 0.831438)
(0.647068 0.0946374 0.789263)
(0.623988 0.0760155 0.831443)
(0.647146 0.0951348 0.789261)
(0.624062 0.0765111 0.831449)
(0.647224 0.0956323 0.789258)
(0.624135 0.0770066 0.831454)
(0.647301 0.0961298 0.789256)
(0.624209 0.0775022 0.831459)
(0.647379 0.0966273 0.789253)
(0.624283 0.0779977 0.831465)
(0.647457 0.0971248 0.789251)
(0.624356 0.0784933 0.83147)
(0.647534 0.0976223 0.789248)
(0.62443 0.0789889 0.831475)
(0.647612 0.0981197 0.789246)
(0.624504 0.0794844 0.83148)
(0.64769 0.0986172 0.789244)
(0.624578 0.0799799 0.831485)
(0.647768 0.0991147 0.789242)
(0.624652 0.0804755 0.83149)
(0.647845 0.0996122 0.78924)
(0.624726 0.080971 0.831494)
(0.647923 0.10011 0.789237)
(0.624799 0.0814665 0.831499)
(0.648 0.100607 0.789235)
(0.624873 0.0819621 0.831504)
(0.648078 0.101105 0.789234)
(0.624947 0.0824576 0.831508)
(0.648155 0.101602 0.789232)
(0.625021 0.0829531 0.831513)
(0.648233 0.1021 0.78923)
(0.625095 0.0834486 0.831517)
(0.64831 0.102597 0.789228)
(0.625169 0.0839442 0.831522)
(0.648388 0.103095 0.789226)
(0.625244 0.0844397 0.831526)
(0.648465 0.103592 0.789224)
(0.625318 0.0849352 0.831531)
(0.648542 0.10409 0.789223)
(0.625392 0.0854307 0.831535)
(0.64862 0.104588 0.789221)
(0.625466 0.0859262 0.831539)
(0.648697 0.105085 0.78922)
(0.62554 0.0864217 0.831543)
(0.648774 0.105583 0.789218)
(0.625614 0.0869172 0.831547)
(0.648852 0.10608 0.789217)
(0.625688 0.0874127 0.831551)
(0.648929 0.106578 0.789215)
(0.625763 0.0879082 0.831555)
(0.649006 0.107075 0.789214)
(0.625837 0.0884036 0.831559)
(0.649083 0.107573 0.789213)
(0.625911 0.0888991 0.831563)
(0.64916 0.108071 0.789211)
(0.625985 0.0893946 0.831567)
(0.649237 0.108568 0.78921)
(0.62606 0.0898901 0.83157)
(0.649315 0.109066 0.789209)
(0.626134 0.0903856 0.831574)
(0.649392 0.109563 0.789208)
(0.626209 0.090881 0.831578)
(0.649469 0.110061 0.789207)
(0.626283 0.0913765 0.831581)
(0.649546 0.110558 0.789206)
(0.626357 0.091872 0.831585)
(0.649623 0.111056 0.789205)
(0.626432 0.0923674 0.831588)
(0.6497 0.111554 0.789205)
(0.626506 0.0928629 0.831592)
(0.649777 0.112051 0.789204)
(0.626581 0.0933583 0.831595)
(0.649854 0.112549 0.789203)
(0.626655 0.0938538 0.831598)
(0.64993 0.113047 0.789202)
(0.62673 0.0943492 0.831602)
(0.650007 0.113544 0.789202)
(0.626805 0.0948447 0.831605)
(0.650084 0.114042 0.789201)
(0.626879 0.0953401 0.831608)
(0.650161 0.114539 0.789201)
(0.626954 0.0958355 0.831611)
(0.650238 0.115037 0.7892)
(0.627029 0.096331 0.831614)
(0.650314 0.115535 0.7892)
(0.627103 0.0968264 0.831617)
(0.650391 0.116032 0.7892)
(0.627178 0.0973218 0.83162)
(0.650468 0.11653 0.789199)
(0.627253 0.0978172 0.831623)
(0.650544 0.117028 0.789199)
(0.627327 0.0983123 0.831625)
(0.650621 0.117525 0.789199)
(0.627402 0.0988073 0.831628)
(0.650698 0.118023 0.789199)
(0.627477 0.0993023 0.831631)
(0.650774 0.118521 0.789199)
(0.627552 0.0997973 0.831633)
(0.650851 0.119018 0.789199)
(0.627627 0.100292 0.831636)
(0.650927 0.119516 0.789199)
(0.627701 0.100787 0.831639)
(0.651003 0.120009 0.789199)
(0.627776 0.101282 0.831641)
(0.651079 0.120502 0.789199)
(0.627851 0.101777 0.831643)
(0.651154 0.120995 0.7892)
(0.627926 0.102272 0.831646)
(0.65123 0.121488 0.7892)
(0.628001 0.102767 0.831648)
(0.651305 0.121981 0.7892)
(0.628076 0.103262 0.83165)
(0.651381 0.122474 0.789201)
(0.628151 0.103757 0.831653)
(0.651457 0.122966 0.789201)
(0.628226 0.104252 0.831655)
(0.651532 0.12346 0.789202)
(0.628301 0.104747 0.831657)
(0.651608 0.123952 0.789202)
(0.628376 0.105242 0.831659)
(0.651683 0.124445 0.789203)
(0.628451 0.105737 0.831661)
(0.651758 0.124938 0.789204)
(0.628526 0.106232 0.831662)
(0.651834 0.125431 0.789205)
(0.628602 0.106727 0.831664)
(0.651909 0.125924 0.789206)
(0.628677 0.107222 0.831666)
(0.651984 0.126417 0.789206)
(0.628752 0.107717 0.831668)
(0.65206 0.12691 0.789207)
(0.628827 0.108212 0.83167)
(0.652135 0.127403 0.789208)
(0.628903 0.108707 0.831671)
(0.65221 0.127896 0.789209)
(0.628978 0.109202 0.831673)
(0.652286 0.128389 0.789211)
(0.629053 0.109697 0.831674)
(0.652361 0.128882 0.789212)
(0.629128 0.110192 0.831676)
(0.652436 0.129375 0.789213)
(0.629204 0.110687 0.831677)
(0.652511 0.129868 0.789214)
(0.629279 0.111182 0.831679)
(0.652586 0.130361 0.789216)
(0.629355 0.111676 0.83168)
(0.652661 0.130855 0.789217)
(0.62943 0.112172 0.831681)
(0.652736 0.131348 0.789218)
(0.629506 0.112666 0.831682)
(0.652811 0.13184 0.78922)
(0.629581 0.113161 0.831683)
(0.652886 0.132334 0.789221)
(0.629657 0.113656 0.831685)
(0.652961 0.132827 0.789223)
(0.629732 0.114151 0.831686)
(0.653036 0.13332 0.789225)
(0.629808 0.114646 0.831687)
(0.653111 0.133813 0.789227)
(0.629883 0.115141 0.831688)
(0.653186 0.134306 0.789228)
(0.629959 0.115636 0.831688)
(0.653261 0.134799 0.78923)
(0.630035 0.116131 0.831689)
(0.653336 0.135292 0.789232)
(0.63011 0.116626 0.83169)
(0.653411 0.135785 0.789234)
(0.630186 0.11712 0.831691)
(0.653485 0.136278 0.789236)
(0.630262 0.117615 0.831692)
(0.65356 0.136771 0.789238)
(0.630338 0.11811 0.831692)
(0.653635 0.137264 0.78924)
(0.630414 0.118605 0.831693)
(0.65371 0.137757 0.789242)
(0.630489 0.1191 0.831693)
(0.653784 0.13825 0.789244)
(0.630565 0.119595 0.831694)
(0.653859 0.138743 0.789247)
(0.630641 0.12009 0.831694)
(0.653934 0.139236 0.789249)
(0.630717 0.120585 0.831695)
(0.654008 0.13973 0.789251)
(0.630793 0.121079 0.831695)
(0.654083 0.140223 0.789254)
(0.630869 0.121574 0.831695)
(0.654158 0.140716 0.789256)
(0.630945 0.122069 0.831695)
(0.654232 0.141209 0.789259)
(0.631021 0.122564 0.831695)
(0.654307 0.141702 0.789261)
(0.631097 0.123059 0.831695)
(0.654381 0.142195 0.789264)
(0.631173 0.123554 0.831695)
(0.654456 0.142688 0.789266)
(0.631249 0.124049 0.831695)
(0.65453 0.143181 0.789269)
(0.631325 0.124544 0.831695)
(0.654605 0.143674 0.789272)
(0.631402 0.125039 0.831695)
(0.654679 0.144168 0.789275)
(0.631478 0.125534 0.831695)
(0.654753 0.144661 0.789278)
(0.631554 0.126029 0.831695)
(0.654828 0.145154 0.789281)
(0.63163 0.126524 0.831695)
(0.654902 0.145647 0.789284)
(0.631707 0.127019 0.831694)
(0.654976 0.14614 0.789287)
(0.631783 0.127514 0.831694)
(0.655051 0.146633 0.78929)
(0.631859 0.128009 0.831694)
(0.655125 0.147126 0.789293)
(0.631936 0.128504 0.831693)
(0.655199 0.14762 0.789296)
(0.632012 0.128999 0.831693)
(0.655273 0.148113 0.789299)
(0.632089 0.129494 0.831692)
(0.655347 0.148606 0.789303)
(0.632165 0.129989 0.831691)
(0.655422 0.149099 0.789306)
(0.632241 0.130484 0.831691)
(0.655496 0.149592 0.78931)
(0.632318 0.130979 0.83169)
(0.65557 0.150085 0.789313)
(0.632394 0.131474 0.831689)
(0.655644 0.150579 0.789317)
(0.632471 0.131969 0.831688)
(0.655718 0.151072 0.78932)
(0.632548 0.132464 0.831687)
(0.655792 0.151565 0.789324)
(0.632624 0.132959 0.831686)
(0.655866 0.152058 0.789328)
(0.632701 0.133454 0.831685)
(0.65594 0.152551 0.789331)
(0.632778 0.133949 0.831684)
(0.656014 0.153044 0.789335)
(0.632854 0.134444 0.831683)
(0.656088 0.153538 0.789339)
(0.632931 0.134939 0.831682)
(0.656162 0.154031 0.789343)
(0.633008 0.135434 0.831681)
(0.656236 0.154524 0.789347)
(0.633084 0.135928 0.831679)
(0.65631 0.155017 0.789351)
(0.633161 0.136423 0.831678)
(0.656383 0.15551 0.789355)
(0.633238 0.136918 0.831677)
(0.656457 0.156004 0.78936)
(0.633315 0.137413 0.831675)
(0.656531 0.156497 0.789364)
(0.633392 0.137908 0.831674)
(0.656605 0.15699 0.789368)
(0.633469 0.138403 0.831672)
(0.656679 0.157483 0.789372)
(0.633546 0.138898 0.831671)
(0.656752 0.157976 0.789377)
(0.633623 0.139393 0.831669)
(0.656826 0.15847 0.789381)
(0.6337 0.139888 0.831667)
(0.6569 0.158963 0.789386)
(0.633777 0.140383 0.831666)
(0.656973 0.159456 0.78939)
(0.633854 0.140878 0.831664)
(0.657047 0.159949 0.789395)
(0.633931 0.141372 0.831662)
(0.657121 0.160443 0.7894)
(0.634008 0.141867 0.83166)
(0.657194 0.160936 0.789404)
(0.634085 0.142362 0.831658)
(0.657268 0.161429 0.789409)
(0.634162 0.142857 0.831656)
(0.657341 0.161922 0.789414)
(0.634239 0.143352 0.831654)
(0.657415 0.162415 0.789419)
(0.634317 0.143847 0.831652)
(0.657488 0.162909 0.789424)
(0.634394 0.144342 0.831649)
(0.657562 0.163402 0.789429)
(0.634471 0.144836 0.831647)
(0.657635 0.163895 0.789434)
(0.634548 0.145331 0.831645)
(0.657709 0.164389 0.789439)
(0.634625 0.145826 0.831643)
(0.657782 0.164882 0.789444)
(0.634703 0.146321 0.83164)
(0.657855 0.165375 0.78945)
(0.63478 0.146816 0.831638)
(0.657929 0.165868 0.789455)
(0.634858 0.147311 0.831635)
(0.658002 0.166361 0.78946)
(0.634935 0.147805 0.831633)
(0.658076 0.166855 0.789466)
(0.635012 0.1483 0.83163)
(0.658149 0.167348 0.789471)
(0.63509 0.148795 0.831627)
(0.658222 0.167841 0.789477)
(0.635167 0.14929 0.831624)
(0.658295 0.168335 0.789482)
(0.635245 0.149785 0.831622)
(0.658369 0.168828 0.789488)
(0.635322 0.150279 0.831619)
(0.658442 0.169321 0.789494)
(0.6354 0.150774 0.831616)
(0.658517 0.169831 0.7895)
(0.635477 0.151269 0.831613)
(0.658589 0.17034 0.789513)
(0.635555 0.151764 0.83161)
(0.658656 0.170851 0.789538)
(0.635633 0.152259 0.831607)
(0.658715 0.171361 0.789578)
(0.63571 0.152753 0.831604)
(0.658764 0.17187 0.789639)
(0.635788 0.153248 0.8316)
(0.658801 0.172377 0.789723)
(0.635866 0.153743 0.831597)
(0.658824 0.172879 0.789834)
(0.635944 0.154238 0.831594)
(0.658833 0.173375 0.789973)
(0.636021 0.154733 0.83159)
(0.658828 0.173863 0.790139)
(0.636099 0.155227 0.831587)
(0.636177 0.155722 0.831583)
(0.658809 0.17434 0.790331)
(0.636255 0.156217 0.83158)
(0.658777 0.174807 0.790545)
(0.636333 0.156711 0.831576)
(0.658734 0.175264 0.790781)
(0.636411 0.157206 0.831573)
(0.658682 0.17571 0.791032)
(0.636488 0.157701 0.831569)
(0.658622 0.176149 0.791295)
(0.636566 0.158196 0.831565)
(0.658558 0.176581 0.791567)
(0.636644 0.158691 0.831561)
(0.658491 0.177006 0.791841)
(0.636722 0.159185 0.831557)
(0.658423 0.177428 0.792118)
(0.6368 0.15968 0.831554)
(0.636878 0.160175 0.831549)
(0.658352 0.177846 0.7924)
(0.636956 0.160669 0.831545)
(0.658278 0.178262 0.792685)
(0.637034 0.161164 0.831541)
(0.658203 0.178675 0.792974)
(0.637113 0.161659 0.831537)
(0.658125 0.179084 0.793267)
(0.637191 0.162154 0.831533)
(0.658044 0.17949 0.793564)
(0.637269 0.162648 0.831529)
(0.657961 0.179893 0.793864)
(0.637347 0.163143 0.831524)
(0.657876 0.180292 0.794169)
(0.637425 0.163637 0.83152)
(0.657789 0.180689 0.794477)
(0.637504 0.164132 0.831515)
(0.657699 0.181081 0.794789)
(0.637582 0.164627 0.831511)
(0.657607 0.18147 0.795104)
(0.63766 0.165122 0.831506)
(0.657512 0.181856 0.795424)
(0.637738 0.165616 0.831502)
(0.657415 0.182238 0.795747)
(0.637817 0.166111 0.831497)
(0.637895 0.166605 0.831492)
(0.657316 0.182616 0.796073)
(0.637974 0.1671 0.831487)
(0.657214 0.18299 0.796403)
(0.638052 0.167595 0.831482)
(0.657111 0.183361 0.796737)
(0.63813 0.168089 0.831477)
(0.65701 0.183707 0.797056)
(0.638209 0.168584 0.831472)
(0.656906 0.184042 0.797384)
(0.638287 0.169079 0.831467)
(0.656794 0.18436 0.797727)
(0.638366 0.169573 0.831462)
(0.656673 0.184653 0.798088)
(0.656539 0.184915 0.798468)
(0.638444 0.170068 0.831457)
(0.656391 0.185142 0.798865)
(0.638523 0.170563 0.831451)
(0.65623 0.185331 0.799276)
(0.638602 0.171057 0.831446)
(0.656055 0.185487 0.799696)
(0.655872 0.185614 0.800122)
(0.63868 0.171552 0.831441)
(0.655682 0.185725 0.80055)
(0.638759 0.172046 0.831435)
(0.655482 0.185833 0.800999)
(0.655281 0.185937 0.80145)
(0.638839 0.172551 0.831428)
(0.655079 0.186037 0.801901)
(0.638923 0.173052 0.831415)
(0.654876 0.186132 0.802353)
(0.654672 0.186223 0.802805)
(0.639012 0.173553 0.83139)
(0.654467 0.186309 0.803258)
(0.654262 0.186392 0.803711)
(0.639109 0.174052 0.831347)
(0.654056 0.186471 0.804165)
(0.639215 0.174546 0.831283)
(0.653849 0.186546 0.804619)
(0.653641 0.186617 0.805073)
(0.639332 0.175034 0.831194)
(0.653433 0.186685 0.805527)
(0.639461 0.175513 0.831079)
(0.653225 0.186749 0.805982)
(0.653015 0.18681 0.806436)
(0.639601 0.175982 0.830936)
(0.652806 0.186868 0.806891)
(0.639752 0.176439 0.830768)
(0.652595 0.186923 0.807346)
(0.652384 0.186974 0.807801)
(0.639911 0.176883 0.830578)
(0.652173 0.187022 0.808257)
(0.651961 0.187068 0.808712)
(0.640079 0.177317 0.830368)
(0.651748 0.18711 0.809168)
(0.640252 0.17774 0.830144)
(0.651536 0.187149 0.809623)
(0.651322 0.187185 0.810079)
(0.640429 0.178157 0.82991)
(0.640609 0.178574 0.829669)
(0.651108 0.187218 0.810534)
(0.650894 0.187248 0.81099)
(0.640791 0.178988 0.829424)
(0.650679 0.187275 0.811445)
(0.640974 0.179398 0.829175)
(0.650464 0.187299 0.811901)
(0.641159 0.179805 0.828922)
(0.650249 0.18732 0.812356)
(0.650033 0.187337 0.812812)
(0.641345 0.180209 0.828665)
(0.649816 0.187352 0.813267)
(0.641532 0.180609 0.828404)
(0.649599 0.187364 0.813722)
(0.641722 0.181007 0.828138)
(0.649382 0.187372 0.814177)
(0.641912 0.1814 0.827869)
(0.649164 0.187377 0.814632)
(0.648946 0.187378 0.815087)
(0.642104 0.18179 0.827595)
(0.648727 0.187376 0.815541)
(0.642298 0.182177 0.827317)
(0.648508 0.187371 0.815995)
(0.642492 0.18256 0.827035)
(0.648289 0.187362 0.816449)
(0.648068 0.187349 0.816903)
(0.642689 0.182939 0.826749)
(0.647848 0.187332 0.817356)
(0.642886 0.183315 0.82646)
(0.647627 0.187311 0.817808)
(0.643085 0.183687 0.826166)
(0.647405 0.187286 0.818261)
(0.647183 0.187257 0.818713)
(0.643285 0.184055 0.825868)
(0.64696 0.187223 0.819164)
(0.643486 0.184419 0.825567)
(0.646737 0.187184 0.819614)
(0.643688 0.184779 0.825261)
(0.646513 0.18714 0.820064)
(0.646289 0.187091 0.820513)
(0.643888 0.185127 0.824956)
(0.646064 0.187036 0.820961)
(0.644091 0.185462 0.824638)
(0.645839 0.186975 0.821409)
(0.645614 0.186899 0.821854)
(0.644298 0.185775 0.824301)
(0.64451 0.186058 0.82394)
(0.645389 0.186801 0.822295)
(0.644725 0.186304 0.823556)
(0.645166 0.186673 0.822729)
(0.644944 0.186509 0.823151)
)

// edges

658
(
(0 1)
(2 0)
(1 3)
(4 2)
(5 4)
(3 6)
(7 5)
(6 8)
(9 7)
(8 10)
(11 9)
(10 12)
(13 11)
(12 14)
(15 13)
(14 16)
(17 15)
(16 18)
(19 17)
(18 20)
(21 19)
(22 21)
(20 23)
(24 22)
(23 25)
(26 24)
(25 27)
(28 26)
(27 29)
(30 28)
(29 31)
(32 30)
(31 33)
(34 32)
(35 34)
(33 36)
(37 35)
(36 38)
(38 39)
(40 37)
(41 40)
(39 42)
(43 41)
(42 44)
(45 43)
(44 46)
(47 45)
(48 47)
(46 49)
(50 48)
(49 51)
(52 50)
(51 53)
(54 52)
(53 55)
(56 54)
(57 56)
(55 58)
(59 57)
(58 60)
(61 59)
(62 61)
(60 63)
(63 64)
(65 62)
(66 65)
(67 66)
(64 68)
(69 67)
(70 69)
(68 71)
(72 70)
(73 72)
(71 74)
(75 73)
(74 76)
(77 75)
(78 77)
(76 79)
(80 78)
(81 80)
(79 82)
(83 81)
(84 83)
(82 85)
(86 84)
(85 87)
(88 86)
(89 88)
(87 90)
(91 89)
(90 92)
(93 91)
(94 93)
(92 95)
(96 94)
(95 97)
(98 96)
(99 98)
(97 100)
(101 99)
(100 102)
(103 101)
(102 104)
(105 103)
(104 106)
(107 105)
(106 108)
(109 107)
(108 110)
(111 109)
(110 112)
(113 111)
(112 114)
(115 113)
(114 116)
(116 117)
(118 115)
(117 119)
(120 118)
(119 121)
(122 120)
(121 123)
(124 122)
(123 125)
(126 124)
(125 127)
(128 126)
(127 129)
(130 128)
(129 131)
(132 130)
(131 133)
(134 132)
(133 135)
(135 136)
(137 134)
(136 138)
(139 137)
(138 140)
(141 139)
(140 142)
(143 141)
(142 144)
(145 143)
(144 146)
(147 145)
(146 148)
(149 147)
(148 150)
(151 149)
(150 152)
(153 151)
(152 154)
(155 153)
(154 156)
(157 155)
(156 158)
(159 157)
(158 160)
(161 159)
(160 162)
(163 161)
(162 164)
(165 163)
(164 166)
(167 165)
(166 168)
(169 167)
(168 170)
(171 169)
(170 172)
(173 171)
(172 174)
(175 173)
(174 176)
(177 175)
(176 178)
(179 177)
(178 180)
(181 179)
(180 182)
(183 181)
(182 184)
(185 183)
(184 186)
(187 185)
(186 188)
(189 187)
(188 190)
(191 189)
(190 192)
(193 191)
(192 194)
(195 193)
(194 196)
(197 195)
(196 198)
(199 197)
(198 200)
(201 199)
(200 202)
(203 201)
(202 204)
(205 203)
(204 206)
(207 205)
(206 208)
(209 207)
(208 210)
(211 209)
(210 212)
(213 211)
(212 214)
(215 213)
(214 216)
(217 215)
(216 218)
(219 217)
(218 220)
(221 219)
(220 222)
(223 221)
(222 224)
(225 223)
(224 226)
(227 225)
(226 228)
(229 227)
(228 230)
(231 229)
(230 232)
(233 231)
(232 234)
(235 233)
(234 236)
(237 235)
(236 238)
(239 237)
(238 240)
(241 239)
(240 242)
(243 241)
(242 244)
(245 243)
(244 246)
(247 245)
(246 248)
(249 247)
(248 250)
(251 249)
(250 252)
(253 251)
(252 254)
(255 253)
(254 256)
(257 255)
(256 258)
(259 257)
(258 260)
(261 259)
(260 262)
(263 261)
(262 264)
(265 263)
(264 266)
(267 265)
(266 268)
(269 267)
(268 270)
(271 269)
(270 272)
(273 271)
(272 274)
(275 273)
(274 276)
(277 275)
(276 278)
(279 277)
(278 280)
(281 279)
(280 282)
(283 281)
(282 284)
(285 283)
(284 286)
(287 285)
(286 288)
(289 287)
(288 290)
(291 289)
(290 292)
(293 291)
(292 294)
(295 293)
(294 296)
(297 295)
(296 298)
(299 297)
(298 300)
(301 299)
(300 302)
(303 301)
(302 304)
(305 303)
(304 306)
(307 305)
(306 308)
(309 307)
(308 310)
(311 309)
(310 312)
(313 311)
(312 314)
(315 313)
(314 316)
(317 315)
(316 318)
(319 317)
(318 320)
(321 319)
(320 322)
(323 321)
(322 324)
(325 323)
(324 326)
(327 325)
(326 328)
(329 327)
(328 330)
(331 329)
(330 332)
(333 331)
(332 334)
(335 333)
(334 336)
(337 335)
(336 338)
(339 337)
(338 340)
(341 339)
(340 342)
(343 341)
(342 344)
(345 343)
(344 346)
(347 345)
(346 348)
(349 347)
(348 350)
(351 349)
(350 352)
(353 351)
(352 354)
(355 353)
(354 356)
(357 355)
(356 358)
(359 357)
(358 360)
(361 359)
(360 362)
(363 361)
(362 364)
(365 363)
(364 366)
(367 365)
(366 368)
(369 367)
(368 370)
(371 369)
(370 372)
(373 371)
(372 374)
(375 373)
(374 376)
(377 375)
(376 378)
(379 377)
(378 380)
(381 379)
(380 382)
(383 381)
(382 384)
(385 383)
(384 386)
(387 385)
(386 388)
(389 387)
(388 390)
(391 389)
(390 392)
(393 391)
(392 394)
(395 393)
(394 396)
(397 395)
(396 398)
(399 397)
(398 400)
(401 399)
(400 402)
(403 401)
(402 404)
(405 403)
(404 406)
(407 405)
(406 408)
(409 407)
(408 410)
(411 409)
(410 412)
(413 411)
(412 414)
(415 413)
(414 416)
(417 415)
(416 418)
(419 417)
(418 420)
(421 419)
(420 422)
(423 421)
(422 424)
(425 423)
(424 426)
(427 425)
(426 428)
(429 427)
(428 430)
(431 429)
(430 432)
(433 431)
(432 434)
(435 433)
(434 436)
(437 435)
(436 438)
(439 437)
(438 440)
(441 439)
(440 442)
(443 441)
(442 444)
(445 443)
(444 446)
(447 445)
(446 448)
(449 447)
(448 450)
(451 449)
(450 452)
(453 451)
(452 454)
(455 453)
(454 456)
(457 455)
(456 458)
(459 457)
(458 460)
(461 459)
(460 462)
(463 461)
(462 464)
(465 463)
(464 466)
(467 465)
(466 468)
(469 467)
(468 470)
(471 469)
(470 472)
(473 471)
(472 474)
(475 473)
(474 476)
(477 475)
(476 478)
(479 477)
(478 480)
(481 479)
(480 482)
(483 481)
(482 484)
(485 483)
(484 486)
(487 485)
(486 488)
(489 487)
(488 490)
(491 489)
(490 492)
(493 491)
(492 494)
(495 493)
(494 496)
(497 495)
(496 498)
(499 497)
(498 500)
(501 499)
(500 502)
(503 501)
(502 504)
(505 503)
(506 505)
(504 507)
(508 506)
(507 509)
(510 508)
(509 511)
(512 510)
(511 513)
(514 512)
(513 515)
(516 514)
(515 517)
(518 516)
(517 519)
(520 518)
(519 521)
(522 520)
(523 522)
(521 524)
(525 523)
(524 526)
(527 525)
(526 528)
(529 527)
(528 530)
(531 529)
(530 532)
(533 531)
(532 534)
(535 533)
(534 536)
(537 535)
(536 538)
(539 537)
(538 540)
(541 539)
(540 542)
(543 541)
(542 544)
(545 543)
(544 546)
(547 545)
(548 547)
(546 549)
(550 548)
(549 551)
(552 550)
(551 553)
(554 552)
(553 555)
(556 554)
(555 557)
(558 556)
(557 559)
(560 558)
(559 561)
(561 562)
(563 560)
(562 564)
(565 563)
(564 566)
(567 565)
(566 568)
(568 569)
(570 567)
(569 571)
(572 570)
(571 573)
(573 574)
(575 572)
(574 576)
(577 575)
(576 578)
(578 579)
(580 577)
(579 581)
(581 582)
(583 580)
(582 584)
(585 583)
(584 586)
(586 587)
(588 585)
(587 589)
(590 588)
(589 591)
(591 592)
(593 590)
(592 594)
(595 593)
(594 596)
(596 597)
(598 595)
(597 599)
(599 600)
(601 598)
(600 602)
(603 601)
(602 604)
(604 605)
(606 603)
(607 606)
(605 608)
(608 609)
(610 607)
(609 611)
(612 610)
(611 613)
(614 612)
(613 615)
(615 616)
(617 614)
(616 618)
(619 617)
(618 620)
(621 619)
(620 622)
(623 621)
(622 624)
(624 625)
(626 623)
(625 627)
(628 626)
(627 629)
(630 628)
(629 631)
(631 632)
(633 630)
(632 634)
(635 633)
(634 636)
(637 635)
(636 638)
(638 639)
(640 637)
(639 641)
(642 640)
(641 643)
(644 642)
(643 645)
(645 646)
(647 644)
(646 648)
(649 647)
(648 650)
(650 651)
(652 649)
(653 652)
(651 654)
(655 653)
(654 656)
(657 655)
(656 657)
)

// concaveStart mixedStart nonFeatureStart
0 0 0
// internalStart flatStart openStart multipleStart
0 0 0 658
// normals

658
(
(0.883194 -0.0506401 0.466267)
(0.8843 -0.072258 0.461293)
(0.884009 -0.0781647 0.460889)
(0.882127 -0.0972267 0.460868)
(0.879252 -0.125992 0.459392)
(0.883743 -0.091637 0.458913)
(0.876713 -0.164092 0.45216)
(0.882266 -0.0951395 0.461036)
(0.8963 -0.162782 0.41249)
(0.879094 -0.090448 0.467989)
(0.89788 -0.147606 0.414759)
(0.879341 -0.0903523 0.467542)
(0.898557 -0.127699 0.419866)
(0.878651 -0.0934663 0.468227)
(0.89805 -0.127333 0.42106)
(0.878589 -0.0907123 0.468885)
(0.898596 -0.11548 0.423307)
(0.879841 -0.0933119 0.466018)
(0.899035 -0.103363 0.425502)
(0.878793 -0.09589 0.46747)
(0.899747 -0.0929878 0.42639)
(0.900205 -0.0814016 0.427791)
(0.880307 -0.100255 0.46369)
(0.900321 -0.0671002 0.430022)
(0.880484 -0.0998893 0.463433)
(0.900826 -0.0674721 0.428906)
(0.87705 -0.0926483 0.471381)
(0.900943 -0.0531379 0.430672)
(0.876674 -0.0940745 0.471798)
(0.900774 -0.0532923 0.431006)
(0.877668 -0.0970723 0.469336)
(0.901584 -0.052295 0.429432)
(0.881808 -0.106537 0.459418)
(0.899915 -0.0537969 0.432735)
(0.900919 -0.0550399 0.430483)
(0.881699 -0.107981 0.45929)
(0.900499 -0.053012 0.431615)
(0.8718 -0.0871767 0.482043)
(0.871322 -0.0881311 0.482732)
(0.900045 -0.0584126 0.431865)
(0.901207 -0.0551042 0.429871)
(0.879326 -0.105387 0.464413)
(0.900762 -0.0595242 0.430214)
(0.882432 -0.109736 0.457462)
(0.901706 -0.0542873 0.428927)
(0.881479 -0.115114 0.457977)
(0.901001 -0.0573724 0.430006)
(0.902207 -0.0539612 0.427915)
(0.881743 -0.11359 0.45785)
(0.902088 -0.0540431 0.428154)
(0.874911 -0.102106 0.473397)
(0.90394 -0.0355728 0.426177)
(0.874577 -0.104634 0.473462)
(0.900641 -0.0750626 0.428031)
(0.8775 -0.114036 0.465821)
(0.901121 -0.0761862 0.426823)
(0.901413 -0.0712202 0.427062)
(0.877071 -0.116397 0.466046)
(0.900278 -0.0795688 0.427982)
(0.874239 -0.117301 0.471111)
(0.903167 -0.0620038 0.424787)
(0.90254 -0.0623302 0.426071)
(0.8726 -0.120489 0.473341)
(0.872547 -0.120807 0.473357)
(0.904105 -0.0521182 0.424121)
(0.904398 -0.0519855 0.423512)
(0.902674 -0.0734125 0.424017)
(0.871648 -0.125023 0.473918)
(0.902484 -0.0731254 0.424471)
(0.900657 -0.0835866 0.426417)
(0.870848 -0.12942 0.474209)
(0.900471 -0.0836269 0.426801)
(0.898765 -0.0930187 0.428451)
(0.871279 -0.128313 0.473719)
(0.898983 -0.0930631 0.427982)
(0.871847 -0.131802 0.471711)
(0.896885 -0.106643 0.429214)
(0.895883 -0.106378 0.431366)
(0.87267 -0.133234 0.469782)
(0.89315 -0.126037 0.431738)
(0.892398 -0.125976 0.433308)
(0.87403 -0.133696 0.467115)
(0.887665 -0.148351 0.435938)
(0.887193 -0.148066 0.436994)
(0.874253 -0.133108 0.466866)
(0.881813 -0.165079 0.441764)
(0.874441 -0.134257 0.466185)
(0.878893 -0.178943 0.442184)
(0.869804 -0.205629 0.448506)
(0.87537 -0.13426 0.464437)
(0.863163 -0.2263 0.451373)
(0.876247 -0.13355 0.462985)
(0.861879 -0.22265 0.455621)
(0.884031 -0.230582 0.406597)
(0.875821 -0.13434 0.463563)
(0.905474 -0.165224 0.390919)
(0.87582 -0.134314 0.463572)
(0.917216 -0.117646 0.380624)
(0.922584 -0.0663478 0.380049)
(0.877819 -0.134802 0.459633)
(0.924615 -0.0722658 0.373986)
(0.877924 -0.134744 0.459449)
(0.92969 -0.0689285 0.361835)
(0.878665 -0.134017 0.458243)
(0.929145 -0.0744684 0.362137)
(0.878053 -0.135649 0.458937)
(0.929164 -0.0746755 0.362048)
(0.877639 -0.132978 0.460507)
(0.930935 -0.0741814 0.357571)
(0.878753 -0.134837 0.457834)
(0.930935 -0.0740711 0.357595)
(0.878784 -0.134869 0.457765)
(0.928714 -0.0812042 0.361795)
(0.880838 -0.135315 0.453667)
(0.925391 -0.0853368 0.369282)
(0.880972 -0.135234 0.453431)
(0.88155 -0.134567 0.452506)
(0.918918 -0.100031 0.381555)
(0.881156 -0.135266 0.453064)
(0.918995 -0.0979921 0.381898)
(0.879376 -0.135984 0.456297)
(0.919768 -0.0986829 0.379852)
(0.88277 -0.133781 0.450355)