/*--------------------------------*- C++ -*----------------------------------*\
  =========                 |
  \\      /  F ield         | OpenFOAM: The Open Source CFD Toolbox
   \\    /   O peration     | Website:  https://openfoam.org
    \\  /    A nd           | Version:  11
     \\/     M anipulation  |
\*---------------------------------------------------------------------------*/
FoamFile
{
    format      ascii;
    class       extendedFeatureEdgeMesh;
    location    "constant/extendedFeatureEdgeMesh";
    object      Outlet1.extendedFeatureEdgeMesh;
}
// * * * * * * * * * * * * * * * * * * * * * * * * * * * * * * * * * * * * * //

// points

658
(
(610.931 657.225 815.338)
(610.835 656.827 815.648)
(641.752 530.956 792.458)
(641.898 531.205 792.074)
(641.591 530.742 792.858)
(641.418 530.567 793.27)
(642.032 531.487 791.709)
(642.156 531.793 791.36)
(641.232 530.426 793.691)
(642.274 532.117 791.025)
(641.036 530.313 794.115)
(642.387 532.452 790.699)
(640.836 530.217 794.541)
(642.504 532.812 790.358)
(640.624 530.124 794.989)
(642.619 533.175 790.02)
(640.411 530.036 795.438)
(642.731 533.543 789.685)
(640.197 529.952 795.887)
(642.841 533.914 789.354)
(639.982 529.873 796.336)
(642.949 534.289 789.027)
(639.767 529.798 796.786)
(643.055 534.668 788.703)
(639.551 529.727 797.236)
(643.158 535.05 788.383)
(639.334 529.66 797.687)
(643.258 535.436 788.066)
(639.117 529.597 798.137)
(643.357 535.826 787.753)
(638.899 529.538 798.588)
(643.452 536.219 787.443)
(638.68 529.482 799.039)
(643.546 536.615 787.137)
(638.461 529.43 799.49)
(643.637 537.015 786.835)
(638.241 529.382 799.942)
(643.725 537.419 786.536)
(638.021 529.336 800.393)
(643.812 537.825 786.242)
(637.8 529.294 800.844)
(643.896 538.234 785.951)
(637.578 529.256 801.296)
(637.356 529.22 801.747)
(643.977 538.647 785.663)
(644.056 539.063 785.38)
(637.134 529.188 802.199)
(644.134 539.487 785.098)
(636.911 529.159 802.65)
(636.688 529.132 803.102)
(644.206 539.917 784.824)
(636.464 529.109 803.553)
(644.271 540.356 784.561)
(636.24 529.089 804.005)
(644.327 540.805 784.315)
(636.016 529.072 804.456)
(644.371 541.265 784.088)
(635.791 529.058 804.907)
(635.565 529.047 805.358)
(644.402 541.737 783.884)
(635.34 529.039 805.809)
(644.418 542.219 783.705)
(635.114 529.034 806.26)
(644.42 542.711 783.552)
(634.887 529.032 806.711)
(634.661 529.033 807.161)
(644.407 543.211 783.427)
(634.433 529.038 807.611)
(634.206 529.045 808.061)
(644.38 543.715 783.328)
(633.978 529.056 808.511)
(644.341 544.223 783.252)
(633.749 529.071 808.96)
(633.521 529.089 809.409)
(644.291 544.733 783.196)
(633.291 529.11 809.858)
(633.062 529.135 810.306)
(644.232 545.243 783.157)
(632.832 529.164 810.754)
(644.169 545.754 783.128)
(632.601 529.197 811.202)
(632.37 529.233 811.648)
(644.102 546.264 783.105)
(632.139 529.274 812.095)
(644.036 546.758 783.084)
(631.907 529.32 812.54)
(631.675 529.37 812.985)
(643.971 547.252 783.064)
(631.442 529.425 813.429)
(631.209 529.484 813.872)
(643.906 547.746 783.043)
(630.976 529.549 814.315)
(643.84 548.24 783.022)
(630.742 529.619 814.756)
(643.775 548.734 783.001)
(630.508 529.697 815.196)
(630.274 529.788 815.634)
(643.71 549.228 782.981)
(630.041 529.902 816.067)
(643.644 549.722 782.96)
(629.81 530.045 816.492)
(643.579 550.216 782.94)
(629.581 530.225 816.904)
(629.357 530.444 817.298)
(643.513 550.71 782.919)
(629.136 530.704 817.67)
(643.448 551.204 782.899)
(628.921 531 818.018)
(643.382 551.698 782.879)
(628.712 531.325 818.342)
(643.317 552.192 782.858)
(643.251 552.685 782.838)
(628.507 531.672 818.646)
(643.186 553.18 782.818)
(628.306 532.031 818.937)
(643.12 553.673 782.798)
(628.102 532.403 819.227)
(643.054 554.167 782.778)
(627.9 532.778 819.514)
(642.989 554.661 782.758)
(627.699 533.157 819.797)
(642.923 555.155 782.738)
(627.5 533.54 820.076)
(642.857 555.649 782.718)
(627.302 533.927 820.351)
(642.792 556.143 782.698)
(627.106 534.317 820.621)
(642.726 556.637 782.678)
(626.911 534.71 820.888)
(642.66 557.131 782.658)
(642.594 557.625 782.639)
(626.717 535.107 821.151)
(642.529 558.119 782.619)
(626.525 535.508 821.409)
(642.463 558.613 782.599)
(626.335 535.911 821.663)
(642.397 559.107 782.58)
(626.146 536.319 821.913)
(642.331 559.601 782.56)
(625.959 536.729 822.159)
(642.265 560.095 782.541)
(625.773 537.143 822.401)
(642.199 560.589 782.522)
(625.589 537.56 822.639)
(642.133 561.083 782.503)
(642.067 561.577 782.483)
(625.407 537.979 822.872)
(642.001 562.071 782.464)
(625.226 538.402 823.101)
(641.935 562.565 782.445)
(625.047 538.828 823.326)
(641.869 563.059 782.426)
(624.872 539.254 823.544)
(641.803 563.553 782.407)
(624.701 539.687 823.753)
(641.737 564.047 782.388)
(624.536 540.128 823.947)
(641.671 564.541 782.369)
(624.378 540.58 824.121)
(641.605 565.034 782.35)
(641.539 565.528 782.331)
(624.231 541.044 824.273)
(641.472 566.022 782.313)
(624.095 541.518 824.399)
(641.406 566.516 782.294)
(623.972 542.003 824.498)
(641.34 567.01 782.275)
(623.86 542.494 824.571)
(641.273 567.504 782.256)
(623.76 542.992 824.619)
(641.207 567.998 782.238)
(623.67 543.493 824.646)
(641.141 568.492 782.219)
(623.589 543.995 824.656)
(641.075 568.986 782.201)
(623.513 544.499 824.653)
(641.008 569.48 782.183)
(623.44 545.004 824.644)
(640.942 569.974 782.164)
(623.369 545.499 824.634)
(640.875 570.468 782.146)
(623.298 545.995 824.624)
(640.809 570.962 782.128)
(623.227 546.491 824.614)
(640.742 571.456 782.11)
(623.157 546.987 824.604)
(640.676 571.95 782.092)
(623.086 547.482 824.594)
(640.609 572.443 782.074)
(623.015 547.978 824.584)
(640.543 572.937 782.056)
(622.944 548.474 824.574)
(640.476 573.431 782.038)
(622.873 548.969 824.563)
(640.409 573.925 782.02)
(622.803 549.465 824.553)
(640.343 574.419 782.002)
(622.732 549.961 824.542)
(640.276 574.913 781.984)
(622.661 550.457 824.532)
(640.209 575.407 781.967)
(622.591 550.952 824.521)
(640.143 575.901 781.949)
(622.52 551.448 824.511)
(640.076 576.395 781.931)
(622.45 551.944 824.5)
(640.009 576.889 781.914)
(622.379 552.44 824.489)
(639.942 577.383 781.896)
(622.308 552.935 824.478)
(639.875 577.877 781.879)
(622.238 553.431 824.467)
(639.809 578.37 781.861)
(622.167 553.927 824.456)
(639.742 578.864 781.844)
(622.097 554.422 824.445)
(639.675 579.358 781.827)
(622.027 554.918 824.434)
(639.608 579.852 781.81)
(621.956 555.414 824.423)
(639.541 580.346 781.792)
(621.886 555.91 824.412)
(639.474 580.84 781.775)
(621.815 556.406 824.401)
(639.407 581.334 781.758)
(621.745 556.901 824.39)
(639.34 581.828 781.741)
(639.273 582.322 781.724)
(621.675 557.397 824.378)
(639.206 582.815 781.708)
(621.605 557.893 824.367)
(639.138 583.309 781.691)
(621.534 558.389 824.355)
(639.071 583.803 781.674)
(621.464 558.884 824.344)
(639.004 584.297 781.657)
(621.394 559.38 824.332)
(638.937 584.791 781.64)
(621.324 559.876 824.321)
(638.869 585.285 781.624)
(621.254 560.372 824.309)
(638.802 585.779 781.607)
(621.184 560.867 824.297)
(638.735 586.273 781.591)
(621.114 561.363 824.285)
(638.667 586.766 781.574)
(621.043 561.859 824.273)
(638.6 587.26 781.558)
(620.973 562.355 824.261)
(638.533 587.754 781.542)
(620.903 562.851 824.25)
(638.465 588.248 781.525)
(620.833 563.346 824.237)
(638.398 588.742 781.509)
(620.763 563.842 824.225)
(638.33 589.236 781.493)
(620.693 564.338 824.213)
(638.263 589.73 781.477)
(620.624 564.834 824.201)
(638.195 590.224 781.461)
(620.554 565.33 824.189)
(638.128 590.717 781.445)
(620.484 565.825 824.176)
(638.06 591.211 781.429)
(620.414 566.321 824.164)
(637.992 591.705 781.413)
(620.344 566.817 824.151)
(637.924 592.199 781.397)
(620.274 567.313 824.139)
(637.857 592.693 781.381)
(620.205 567.809 824.127)
(637.789 593.187 781.365)
(620.135 568.304 824.114)
(637.721 593.68 781.35)
(620.065 568.8 824.101)
(637.653 594.174 781.334)
(619.996 569.296 824.089)
(637.586 594.668 781.318)
(619.926 569.792 824.076)
(637.518 595.162 781.303)
(619.857 570.288 824.063)
(637.45 595.656 781.287)
(619.787 570.784 824.05)
(637.382 596.15 781.272)
(619.717 571.279 824.037)
(637.314 596.643 781.257)
(619.648 571.775 824.024)
(637.246 597.137 781.241)
(619.578 572.271 824.011)
(637.178 597.631 781.226)
(619.509 572.767 823.998)
(637.11 598.125 781.211)
(619.44 573.263 823.985)
(637.042 598.619 781.196)
(619.37 573.758 823.972)
(636.974 599.112 781.181)
(619.301 574.254 823.958)
(636.906 599.606 781.166)
(619.231 574.75 823.945)
(636.838 600.1 781.151)
(619.162 575.246 823.932)
(636.769 600.594 781.136)
(619.093 575.742 823.918)
(636.701 601.088 781.121)
(619.023 576.238 823.905)
(636.633 601.581 781.106)
(618.954 576.734 823.891)
(636.565 602.075 781.091)
(618.885 577.229 823.878)
(636.496 602.569 781.077)
(618.816 577.725 823.864)
(636.428 603.063 781.062)
(618.747 578.221 823.85)
(636.36 603.557 781.047)
(618.677 578.717 823.837)
(636.291 604.05 781.033)
(618.608 579.213 823.823)
(636.223 604.544 781.018)
(618.539 579.709 823.809)
(636.154 605.038 781.004)
(618.47 580.205 823.795)
(636.086 605.532 780.99)
(618.401 580.701 823.781)
(636.017 606.026 780.975)
(618.332 581.196 823.767)
(635.949 606.519 780.961)
(618.263 581.692 823.753)
(635.88 607.013 780.947)
(618.194 582.188 823.739)
(635.812 607.507 780.933)
(618.125 582.684 823.725)
(635.743 608.001 780.919)
(618.057 583.18 823.711)
(635.674 608.495 780.904)
(617.988 583.676 823.696)
(635.606 608.988 780.89)
(617.919 584.172 823.682)
(635.537 609.482 780.877)
(617.85 584.668 823.667)
(635.468 609.976 780.863)
(617.781 585.164 823.653)
(635.399 610.469 780.849)
(617.713 585.659 823.639)
(635.331 610.963 780.835)
(617.644 586.155 823.624)
(635.262 611.457 780.821)
(617.575 586.651 823.609)
(635.193 611.951 780.808)
(617.506 587.147 823.595)
(635.124 612.445 780.794)
(617.438 587.643 823.58)
(635.055 612.938 780.78)
(617.369 588.139 823.565)
(634.986 613.432 780.767)
(617.301 588.635 823.551)
(634.917 613.926 780.753)
(617.232 589.131 823.536)
(634.848 614.419 780.74)
(617.164 589.627 823.521)
(634.779 614.913 780.727)
(617.095 590.123 823.506)
(634.71 615.407 780.714)
(617.027 590.619 823.491)
(634.641 615.901 780.7)
(616.958 591.114 823.476)
(634.572 616.394 780.687)
(616.89 591.61 823.461)
(634.503 616.888 780.674)
(616.821 592.106 823.445)
(634.434 617.382 780.661)
(616.753 592.602 823.43)
(634.365 617.875 780.648)
(616.685 593.098 823.415)
(634.295 618.369 780.635)
(616.616 593.594 823.4)
(634.226 618.863 780.622)
(616.548 594.09 823.384)
(634.157 619.357 780.609)
(616.48 594.586 823.369)
(634.088 619.85 780.596)
(616.412 595.082 823.353)
(634.018 620.344 780.584)
(616.344 595.578 823.338)
(633.949 620.838 780.571)
(616.275 596.074 823.322)
(633.88 621.331 780.558)
(616.207 596.57 823.307)
(633.81 621.825 780.546)
(616.139 597.066 823.291)
(633.741 622.319 780.533)
(616.071 597.562 823.275)
(633.671 622.813 780.521)
(616.003 598.058 823.26)
(633.602 623.306 780.508)
(615.935 598.554 823.244)
(633.532 623.8 780.496)
(615.867 599.05 823.228)
(633.463 624.294 780.484)
(615.799 599.545 823.212)
(633.393 624.787 780.471)
(615.731 600.042 823.196)
(633.324 625.281 780.459)
(615.663 600.537 823.18)
(633.254 625.775 780.447)
(615.595 601.033 823.164)
(633.184 626.268 780.435)
(615.528 601.529 823.147)
(633.115 626.762 780.423)
(615.46 602.025 823.131)
(633.045 627.256 780.411)
(615.392 602.521 823.115)
(632.975 627.749 780.399)
(615.324 603.017 823.099)
(632.906 628.243 780.387)
(615.256 603.513 823.082)
(632.836 628.737 780.375)
(615.189 604.009 823.066)
(632.766 629.23 780.364)
(615.121 604.505 823.049)
(632.696 629.724 780.352)
(615.053 605.001 823.033)
(632.626 630.218 780.34)
(614.986 605.497 823.016)
(632.557 630.711 780.329)
(614.918 605.993 823)
(632.487 631.205 780.317)
(614.851 606.489 822.983)
(632.417 631.699 780.306)
(614.783 606.985 822.966)
(632.347 632.192 780.294)
(614.716 607.481 822.949)
(632.277 632.686 780.283)
(614.648 607.977 822.932)
(632.207 633.18 780.272)
(614.581 608.473 822.916)
(632.137 633.673 780.26)
(614.513 608.969 822.899)
(632.067 634.167 780.249)
(614.446 609.465 822.882)
(631.997 634.661 780.238)
(614.378 609.961 822.865)
(631.927 635.154 780.227)
(614.311 610.457 822.847)
(631.857 635.648 780.216)
(614.244 610.953 822.83)
(631.786 636.142 780.205)
(614.177 611.449 822.813)
(631.716 636.635 780.194)
(614.109 611.945 822.796)
(631.646 637.129 780.183)
(614.042 612.441 822.779)
(631.576 637.622 780.172)
(613.975 612.937 822.761)
(631.506 638.116 780.162)
(613.908 613.433 822.744)
(631.436 638.61 780.151)
(613.841 613.929 822.726)
(631.365 639.103 780.14)
(613.773 614.425 822.709)
(631.295 639.597 780.13)
(613.706 614.921 822.691)
(631.225 640.091 780.119)
(613.639 615.417 822.673)
(631.154 640.584 780.109)
(613.572 615.913 822.656)
(631.084 641.078 780.098)
(613.505 616.409 822.638)
(631.014 641.571 780.088)
(613.438 616.905 822.62)
(630.943 642.065 780.078)
(613.371 617.401 822.602)
(630.873 642.559 780.067)
(613.304 617.898 822.584)
(630.802 643.052 780.057)
(613.237 618.393 822.566)
(630.732 643.546 780.047)
(613.17 618.89 822.548)
(630.661 644.039 780.037)
(613.104 619.386 822.53)
(630.591 644.533 780.027)
(613.037 619.882 822.512)
(630.521 645.027 780.017)
(612.97 620.378 822.494)
(630.45 645.52 780.007)
(612.903 620.874 822.476)
(630.379 646.014 779.997)
(612.836 621.37 822.457)
(630.306 646.524 779.988)
(612.77 621.866 822.439)
(630.23 647.033 779.985)
(612.703 622.362 822.421)
(630.148 647.542 779.993)
(612.636 622.858 822.402)
(630.058 648.048 780.017)
(612.57 623.354 822.384)
(629.958 648.552 780.061)
(612.503 623.85 822.365)
(629.847 649.05 780.129)
(612.437 624.346 822.346)
(612.37 624.842 822.328)
(629.724 649.541 780.223)
(612.304 625.338 822.309)
(629.588 650.023 780.345)
(612.237 625.834 822.29)
(629.44 650.493 780.495)
(612.171 626.33 822.271)
(629.282 650.95 780.67)
(612.104 626.826 822.252)
(629.113 651.395 780.869)
(612.038 627.323 822.233)
(628.936 651.826 781.088)
(611.971 627.819 822.214)
(628.753 652.246 781.323)
(611.905 628.315 822.195)
(628.565 652.657 781.571)
(611.839 628.81 822.176)
(611.772 629.307 822.157)
(628.374 653.06 781.827)
(611.706 629.803 822.138)
(628.183 653.456 782.086)
(611.64 630.299 822.118)
(627.991 653.848 782.348)
(611.574 630.795 822.099)
(627.797 654.237 782.614)
(611.507 631.291 822.08)
(627.602 654.622 782.884)
(611.441 631.787 822.06)
(627.405 655.004 783.158)
(611.375 632.283 822.041)
(627.207 655.382 783.436)
(611.309 632.779 822.021)
(627.008 655.757 783.718)
(611.243 633.275 822.001)
(611.177 633.771 821.982)
(626.807 656.127 784.004)
(611.111 634.268 821.962)
(626.605 656.494 784.293)
(611.045 634.764 821.942)
(626.401 656.858 784.587)
(610.979 635.26 821.922)
(626.196 657.217 784.884)
(610.913 635.756 821.902)
(625.99 657.572 785.185)
(610.847 636.252 821.882)
(625.782 657.924 785.49)
(610.781 636.748 821.862)
(625.573 658.271 785.799)
(610.715 637.244 821.842)
(625.363 658.614 786.111)
(610.649 637.74 821.822)
(625.151 658.953 786.427)
(610.583 638.236 821.801)
(624.938 659.288 786.746)
(610.518 638.732 821.781)
(624.736 659.599 787.052)
(610.452 639.228 821.761)
(624.533 659.9 787.368)
(610.386 639.724 821.74)
(624.328 660.182 787.698)
(610.32 640.221 821.72)
(624.12 660.439 788.047)
(610.255 640.717 821.699)
(623.908 660.662 788.416)
(610.189 641.213 821.679)
(623.693 660.849 788.804)
(610.123 641.709 821.658)
(623.475 660.995 789.206)
(610.058 642.205 821.637)
(623.254 661.106 789.618)
(623.032 661.188 790.037)
(609.992 642.701 821.616)
(622.81 661.252 790.458)
(609.927 643.197 821.595)
(622.577 661.312 790.901)
(622.344 661.367 791.345)
(609.861 643.693 821.574)
(622.112 661.417 791.79)
(609.795 644.189 821.553)
(621.88 661.462 792.236)
(621.649 661.504 792.682)
(609.729 644.695 821.531)
(621.418 661.541 793.129)
(621.187 661.575 793.576)
(609.666 645.199 821.502)
(620.957 661.604 794.024)
(609.609 645.703 821.461)
(620.727 661.63 794.472)
(620.498 661.652 794.921)
(609.561 646.208 821.403)
(620.269 661.67 795.37)
(609.523 646.71 821.323)
(620.04 661.685 795.819)
(619.812 661.697 796.268)
(609.499 647.208 821.22)
(619.584 661.705 796.718)
(609.488 647.701 821.09)
(619.357 661.71 797.168)
(619.13 661.712 797.619)
(609.492 648.186 820.934)
(618.903 661.711 798.069)
(609.51 648.662 820.753)
(618.677 661.706 798.52)
(618.451 661.699 798.971)
(609.541 649.128 820.55)
(618.226 661.688 799.422)
(609.582 649.585 820.328)
(618.001 661.675 799.873)
(609.633 650.034 820.092)
(617.776 661.658 800.324)
(617.552 661.639 800.776)
(609.688 650.477 819.847)
(617.328 661.616 801.227)
(609.748 650.921 819.595)
(617.105 661.591 801.679)
(609.809 651.362 819.339)
(616.882 661.562 802.13)
(609.873 651.8 819.079)
(616.66 661.53 802.582)
(609.94 652.236 818.814)
(616.438 661.495 803.033)
(616.217 661.457 803.485)
(610.009 652.669 818.546)
(615.996 661.416 803.936)
(610.081 653.099 818.274)
(615.776 661.371 804.388)
(610.155 653.526 817.998)
(615.556 661.323 804.839)
(610.232 653.949 817.718)
(615.336 661.272 805.29)
(615.118 661.217 805.741)
(610.31 654.37 817.434)
(614.9 661.158 806.192)
(610.392 654.788 817.146)
(614.682 661.096 806.643)
(610.476 655.202 816.854)
(614.465 661.03 807.093)
(610.562 655.614 816.558)
(614.249 660.959 807.544)
(610.651 656.022 816.259)
(614.034 660.885 807.993)
(613.819 660.806 808.443)
(610.742 656.426 815.956)
(613.605 660.722 808.892)
(613.392 660.634 809.341)
(613.18 660.541 809.789)
(611.029 657.619 815.023)
(612.969 660.443 810.236)
(612.759 660.339 810.682)
(611.128 658.002 814.709)
(612.551 660.228 811.128)
(611.235 658.372 814.383)
(612.347 660.104 811.573)
(611.351 658.721 814.038)
(612.149 659.959 812.014)
(611.481 659.042 813.671)
(611.962 659.784 812.449)
(611.626 659.328 813.282)
(611.787 659.576 812.873)
)

// edges

658
(
(0 1)
(2 3)
(4 2)
(5 4)
(3 6)
(6 7)
(8 5)
(7 9)
(10 8)
(9 11)
(12 10)
(11 13)
(14 12)
(13 15)
(16 14)
(15 17)
(18 16)
(17 19)
(20 18)
(19 21)
(22 20)
(21 23)
(24 22)
(23 25)
(26 24)
(25 27)
(28 26)
(27 29)
(30 28)
(29 31)
(32 30)
(31 33)
(34 32)
(33 35)
(36 34)
(35 37)
(38 36)
(37 39)
(40 38)
(39 41)
(42 40)
(43 42)
(41 44)
(44 45)
(46 43)
(45 47)
(48 46)
(49 48)
(47 50)
(51 49)
(50 52)
(53 51)
(52 54)
(55 53)
(54 56)
(57 55)
(58 57)
(56 59)
(60 58)
(59 61)
(62 60)
(61 63)
(64 62)
(65 64)
(63 66)
(67 65)
(68 67)
(66 69)
(70 68)
(69 71)
(72 70)
(73 72)
(71 74)
(75 73)
(76 75)
(74 77)
(78 76)
(77 79)
(80 78)
(81 80)
(79 82)
(83 81)
(82 84)
(85 83)
(86 85)
(84 87)
(88 86)
(89 88)
(87 90)
(91 89)
(90 92)
(93 91)
(92 94)
(95 93)
(96 95)
(94 97)
(98 96)
(97 99)
(100 98)
(99 101)
(102 100)
(103 102)
(101 104)
(105 103)
(104 106)
(107 105)
(106 108)
(109 107)
(108 110)
(110 111)
(112 109)
(111 113)
(114 112)
(113 115)
(116 114)
(115 117)
(118 116)
(117 119)
(120 118)
(119 121)
(122 120)
(121 123)
(124 122)
(123 125)
(126 124)
(125 127)
(128 126)
(127 129)
(129 130)
(131 128)
(130 132)
(133 131)
(132 134)
(135 133)
(134 136)
(137 135)
(136 138)
(139 137)
(138 140)
(141 139)
(140 142)
(143 141)
(142 144)
(144 145)
(146 143)
(145 147)
(148 146)
(147 149)
(150 148)
(149 151)
(152 150)
(151 153)
(154 152)
(153 155)
(156 154)
(155 157)
(158 156)
(157 159)
(159 160)
(161 158)
(160 162)
(163 161)
(162 164)
(165 163)
(164 166)
(167 165)
(166 168)
(169 167)
(168 170)
(171 169)
(170 172)
(173 171)
(172 174)
(175 173)
(174 176)
(177 175)
(176 178)
(179 177)
(178 180)
(181 179)
(180 182)
(183 181)
(182 184)
(185 183)
(184 186)
(187 185)
(186 188)
(189 187)
(188 190)
(191 189)
(190 192)
(193 191)
(192 194)
(195 193)
(194 196)
(197 195)
(196 198)
(199 197)
(198 200)
(201 199)
(200 202)
(203 201)
(202 204)
(205 203)
(204 206)
(207 205)
(206 208)
(209 207)
(208 210)
(211 209)
(210 212)
(213 211)
(212 214)
(215 213)
(214 216)
(217 215)
(216 218)
(219 217)
(218 220)
(221 219)
(220 222)
(223 221)
(222 224)
(225 223)
(224 226)
(226 227)
(228 225)
(227 229)
(230 228)
(229 231)
(232 230)
(231 233)
(234 232)
(233 235)
(236 234)
(235 237)
(238 236)
(237 239)
(240 238)
(239 241)
(242 240)
(241 243)
(244 242)
(243 245)
(246 244)
(245 247)
(248 246)
(247 249)
(250 248)
(249 251)
(252 250)
(251 253)
(254 252)
(253 255)
(256 254)
(255 257)
(258 256)
(257 259)
(260 258)
(259 261)
(262 260)
(261 263)
(264 262)
(263 265)
(266 264)
(265 267)
(268 266)
(267 269)
(270 268)
(269 271)
(272 270)
(271 273)
(274 272)
(273 275)
(276 274)
(275 277)
(278 276)
(277 279)
(280 278)
(279 281)
(282 280)
(281 283)
(284 282)
(283 285)
(286 284)
(285 287)
(288 286)
(287 289)
(290 288)
(289 291)
(292 290)
(291 293)
(294 292)
(293 295)
(296 294)
(295 297)
(298 296)
(297 299)
(300 298)
(299 301)
(302 300)
(301 303)
(304 302)
(303 305)
(306 304)
(305 307)
(308 306)
(307 309)
(310 308)
(309 311)
(312 310)
(311 313)
(314 312)
(313 315)
(316 314)
(315 317)
(318 316)
(317 319)
(320 318)
(319 321)
(322 320)
(321 323)
(324 322)
(323 325)
(326 324)
(325 327)
(328 326)
(327 329)
(330 328)
(329 331)
(332 330)
(331 333)
(334 332)
(333 335)
(336 334)
(335 337)
(338 336)
(337 339)
(340 338)
(339 341)
(342 340)
(341 343)
(344 342)
(343 345)
(346 344)
(345 347)
(348 346)
(347 349)
(350 348)
(349 351)
(352 350)
(351 353)
(354 352)
(353 355)
(356 354)
(355 357)
(358 356)
(357 359)
(360 358)
(359 361)
(362 360)
(361 363)
(364 362)
(363 365)
(366 364)
(365 367)
(368 366)
(367 369)
(370 368)
(369 371)
(372 370)
(371 373)
(374 372)
(373 375)
(376 374)
(375 377)
(378 376)
(377 379)
(380 378)
(379 381)
(382 380)
(381 383)
(384 382)
(383 385)
(386 384)
(385 387)
(388 386)
(387 389)
(390 388)
(389 391)
(392 390)
(391 393)
(394 392)
(393 395)
(396 394)
(395 397)
(398 396)
(397 399)
(400 398)
(399 401)
(402 400)
(401 403)
(404 402)
(403 405)
(406 404)
(405 407)
(408 406)
(407 409)
(410 408)
(409 411)
(412 410)
(411 413)
(414 412)
(413 415)
(416 414)
(415 417)
(418 416)
(417 419)
(420 418)
(419 421)
(422 420)
(421 423)
(424 422)
(423 425)
(426 424)
(425 427)
(428 426)
(427 429)
(430 428)
(429 431)
(432 430)
(431 433)
(434 432)
(433 435)
(436 434)
(435 437)
(438 436)
(437 439)
(440 438)
(439 441)
(442 440)
(441 443)
(444 442)
(443 445)
(446 444)
(445 447)
(448 446)
(447 449)
(450 448)
(449 451)
(452 450)
(451 453)
(454 452)
(453 455)
(456 454)
(455 457)
(458 456)
(457 459)
(460 458)
(459 461)
(462 460)
(461 463)
(464 462)
(463 465)
(466 464)
(465 467)
(468 466)
(467 469)
(470 468)
(469 471)
(472 470)
(471 473)
(474 472)
(473 475)
(476 474)
(475 477)
(478 476)
(477 479)
(480 478)
(479 481)
(482 480)
(481 483)
(484 482)
(483 485)
(486 484)
(485 487)
(488 486)
(487 489)
(490 488)
(489 491)
(492 490)
(491 493)
(494 492)
(493 495)
(496 494)
(495 497)
(498 496)
(499 498)
(497 500)
(501 499)
(500 502)
(503 501)
(502 504)
(505 503)
(504 506)
(507 505)
(506 508)
(509 507)
(508 510)
(511 509)
(510 512)
(513 511)
(512 514)
(515 513)
(516 515)
(514 517)
(518 516)
(517 519)
(520 518)
(519 521)
(522 520)
(521 523)
(524 522)
(523 525)
(526 524)
(525 527)
(528 526)
(527 529)
(530 528)
(529 531)
(532 530)
(533 532)
(531 534)
(535 533)
(534 536)
(537 535)
(536 538)
(539 537)
(538 540)
(541 539)
(540 542)
(543 541)
(542 544)
(545 543)
(544 546)
(547 545)
(546 548)
(549 547)
(548 550)
(551 549)
(550 552)
(553 551)
(552 554)
(555 553)
(554 556)
(557 555)
(556 558)
(559 557)
(558 560)
(561 559)
(560 562)
(563 561)
(562 564)
(565 563)
(564 566)
(567 565)
(566 568)
(568 569)
(570 567)
(569 571)
(572 570)
(571 573)
(573 574)
(575 572)
(574 576)
(577 575)
(576 578)
(578 579)
(580 577)
(579 581)
(581 582)
(583 580)
(582 584)
(585 583)
(584 586)
(586 587)
(588 585)
(587 589)
(590 588)
(589 591)
(591 592)
(593 590)
(592 594)
(595 593)
(594 596)
(596 597)
(598 595)
(597 599)
(600 598)
(599 601)
(601 602)
(603 600)
(602 604)
(605 603)
(604 606)
(607 605)
(606 608)
(608 609)
(610 607)
(609 611)
(612 610)
(611 613)
(614 612)
(613 615)
(616 614)
(615 617)
(618 616)
(617 619)
(619 620)
(621 618)
(620 622)
(623 621)
(622 624)
(625 623)
(624 626)
(627 625)
(626 628)
(628 629)
(630 627)
(629 631)
(632 630)
(631 633)
(634 632)
(633 635)
(636 634)
(635 637)
(638 636)
(637 639)
(639 640)
(641 638)
(640 642)
(1 641)
(642 643)
(643 644)
(645 0)
(644 646)
(646 647)
(648 645)
(647 649)
(650 648)
(649 651)
(652 650)
(651 653)
(654 652)
(653 655)
(656 654)
(655 657)
(657 656)
)

// concaveStart mixedStart nonFeatureStart
0 0 0
// internalStart flatStart openStart multipleStart
0 0 0 658
// normals

658
(
(0.893395 0.121416 0.432555)
(0.886652 0.153107 0.436356)
(0.880598 0.16658 0.443621)
(0.874541 0.188076 0.446995)
(0.892512 0.133567 0.430793)
(0.892081 0.131493 0.432322)
(0.875967 0.180169 0.447461)
(0.894721 0.119194 0.430426)
(0.871642 0.187487 0.452867)
(0.894602 0.1177 0.431085)
(0.872083 0.188013 0.451799)
(0.895474 0.116017 0.429728)
(0.872169 0.187927 0.45167)
(0.895622 0.116069 0.429405)
(0.872997 0.186359 0.450719)
(0.891419 0.125197 0.435542)
(0.873895 0.182443 0.45058)
(0.891422 0.124493 0.435739)
(0.873873 0.18241 0.450636)
(0.890868 0.124483 0.436873)
(0.876398 0.176524 0.44807)
(0.890825 0.124351 0.436998)
(0.876219 0.176514 0.448423)
(0.889331 0.12792 0.439007)
(0.877259 0.172745 0.447856)
(0.889581 0.129381 0.43807)
(0.877542 0.172753 0.4473)
(0.890338 0.125277 0.437725)
(0.877678 0.173059 0.446913)
(0.887875 0.132773 0.44051)
(0.877369 0.173022 0.447535)
(0.887356 0.130964 0.442095)
(0.880149 0.162274 0.4461)
(0.888463 0.130144 0.440109)
(0.878446 0.172156 0.445751)
(0.890129 0.129579 0.436898)
(0.87831 0.172027 0.44607)
(0.888858 0.128028 0.439932)
(0.880218 0.161178 0.446361)
(0.8885 0.130564 0.439909)
(0.878777 0.17015 0.44587)
(0.878685 0.170062 0.446084)
(0.887338 0.1337 0.441312)
(0.886602 0.13294 0.443016)
(0.881715 0.158424 0.444388)
(0.886141 0.132443 0.444087)
(0.879185 0.1691 0.445465)
(0.879714 0.169623 0.44422)
(0.886112 0.134294 0.443589)
(0.881137 0.15794 0.445705)
(0.88602 0.134603 0.443679)
(0.882023 0.157623 0.444062)
(0.884 0.134899 0.4476)
(0.881364 0.16185 0.443849)
(0.884661 0.1356 0.44608)
(0.881093 0.161382 0.444556)
(0.880632 0.161921 0.445274)
(0.884541 0.134926 0.446523)
(0.882436 0.158429 0.442952)
(0.884433 0.136259 0.446331)
(0.882072 0.158068 0.443805)
(0.88347 0.135927 0.448336)
(0.881641 0.158655 0.444452)
(0.882936 0.155237 0.443086)
(0.88297 0.135333 0.449498)
(0.882726 0.149018 0.445632)
(0.883031 0.154728 0.443075)
(0.882979 0.135534 0.44942)
(0.882915 0.154228 0.443479)
(0.883227 0.134988 0.449096)
(0.882254 0.154191 0.444806)
(0.883792 0.151118 0.442804)
(0.882556 0.135969 0.450119)
(0.881942 0.157076 0.444416)
(0.883844 0.149018 0.443412)
(0.882747 0.136536 0.449572)
(0.88377 0.146768 0.444307)
(0.883211 0.134349 0.44932)
(0.883665 0.145895 0.444804)
(0.883276 0.145089 0.445839)
(0.881761 0.136256 0.451588)
(0.884424 0.143992 0.443914)
(0.880891 0.136905 0.453088)
(0.883217 0.147385 0.445203)
(0.884347 0.140166 0.44529)
(0.885534 0.134483 0.444684)
(0.883801 0.1403 0.446331)
(0.884553 0.129797 0.448017)
(0.88212 0.135261 0.451186)
(0.885226 0.131091 0.446307)
(0.884171 0.137121 0.446586)
(0.884109 0.132334 0.448151)
(0.883026 0.135287 0.449403)
(0.884774 0.13011 0.447488)
(0.885552 0.128236 0.446489)
(0.882906 0.134349 0.449918)
(0.887068 0.127707 0.443623)
(0.881812 0.137075 0.451241)
(0.888922 0.137731 0.436861)
(0.884298 0.134475 0.44714)
(0.890007 0.136848 0.434925)
(0.892789 0.147339 0.425698)
(0.880562 0.136888 0.453732)
(0.893656 0.159452 0.419469)
(0.883399 0.134445 0.448921)
(0.896856 0.172371 0.407353)
(0.884024 0.136133 0.44718)
(0.897263 0.171647 0.406764)
(0.88413 0.135394 0.447193)
(0.885798 0.136618 0.443506)
(0.898214 0.178688 0.401599)
(0.884162 0.134206 0.447489)
(0.898672 0.17825 0.400768)
(0.884596 0.136501 0.445934)
(0.898263 0.180276 0.40078)
(0.884705 0.136169 0.44582)
(0.898312 0.175586 0.402747)
(0.886096 0.134565 0.443539)
(0.898344 0.175997 0.402497)
(0.883629 0.136274 0.447917)
(0.898773 0.173708 0.402533)
(0.885226 0.136213 0.444772)
(0.89875 0.173713 0.402582)
(0.883902 0.134455 0.447928)
(0.89894 0.173207 0.402374)
(0.884442 0.136209 0.446328)
(0.896347 0.165224 0.411417)
(0.886589 0.136392 0.441993)
(0.885804 0.135414 0.443862)
(0.896279 0.165481 0.41146)
(0.885429 0.134478 0.444894)
(0.898563 0.169776 0.404673)
(0.885957 0.136305 0.443284)
(0.895928 0.161582 0.413768)
(0.884642 0.135402 0.446177)
(0.895933 0.16157 0.413762)
(0.885494 0.136264 0.444222)
(0.898039 0.164938 0.407826)
(0.88504 0.135333 0.445409)
(0.898004 0.16496 0.407893)
(0.885034 0.135479 0.445376)
(0.893918 0.154327 0.420825)
(0.885129 0.135322 0.445236)
(0.884084 0.13619 0.447043)
(0.895793 0.158079 0.415411)
(0.885569 0.135471 0.444314)
(0.898364 0.163674 0.407619)
(0.885463 0.13534 0.444565)
(0.895488 0.156191 0.416781)
(0.885463 0.13534 0.444565)
(0.895854 0.154823 0.416503)
(0.885427 0.135517 0.444584)
(0.892611 0.146833 0.426246)
(0.885557 0.135346 0.444375)
(0.897208 0.153464 0.414085)
(0.885557 0.135346 0.444375)
(0.892091 0.147499 0.427104)
(0.886189 0.135825 0.442968)
(0.885752 0.135357 0.443984)
(0.894155 0.144345 0.423853)
(0.886213 0.136374 0.442751)
(0.898842 0.148383 0.41239)
(0.886265 0.135386 0.44295)
(0.898986 0.143502 0.413802)
(0.886265 0.135386 0.44295)
(0.898998 0.143543 0.41376)
(0.884196 0.137159 0.446525)
(0.896779 0.139534 0.419902)
(0.888419 0.134773 0.438803)
(0.899484 0.139338 0.414143)
(0.886413 0.135394 0.442651)
(0.899883 0.136928 0.414078)
(0.886635 0.134542 0.442467)
(0.900226 0.138171 0.412919)
(0.885244 0.136314 0.444705)
(0.899488 0.137439 0.414768)
(0.885688 0.135353 0.444114)
(0.903352 0.137757 0.406176)
(0.887136 0.136414 0.440887)
(0.903345 0.137548 0.406261)
(0.885337 0.13448 0.445077)
(0.900628 0.137204 0.412364)
(0.886216 0.136357 0.442751)
(0.900692 0.135466 0.412799)
(0.88626 0.134519 0.443224)
(0.901632 0.137589 0.410035)
(0.885134 0.136574 0.444842)
(0.901358 0.137276 0.410742)
(0.887386 0.134533 0.440961)
(0.899521 0.137222 0.414767)
(0.886634 0.136383 0.441904)
(0.898087 0.138057 0.417587)
(0.886635 0.1364 0.441898)
(0.900909 0.13547 0.412323)
(0.887468 0.134591 0.440778)
(0.89961 0.137931 0.414338)
(0.885758 0.136329 0.443674)
(0.899628 0.137122 0.414569)
(0.885739 0.135476 0.443973)
(0.900458 0.136501 0.412969)
(0.884984 0.134442 0.445789)
(0.899319 0.137092 0.415249)
(0.885477 0.136257 0.444258)
(0.900414 0.136247 0.413149)
(0.885646 0.13547 0.44416)
(0.899225 0.137878 0.415191)