/*--------------------------------*- C++ -*----------------------------------*\
  =========                 |
  \\      /  F ield         | OpenFOAM: The Open Source CFD Toolbox
   \\    /   O peration     | Website:  https://openfoam.org
    \\  /    A nd           | Version:  11
     \\/     M anipulation  |
\*---------------------------------------------------------------------------*/
FoamFile
{
    format      ascii;
    class       extendedFeatureEdgeMesh;
    location    "constant/extendedFeatureEdgeMesh";
    object      Outlet3.extendedFeatureEdgeMesh;
}
// * * * * * * * * * * * * * * * * * * * * * * * * * * * * * * * * * * * * * //

// points

659
(
(612.567 -124.424 790.952)
(612.751 -124.014 790.701)
(601.673 -133.102 810.905)
(601.886 -133.137 810.45)
(612.929 -123.591 790.466)
(613.099 -123.156 790.252)
(613.261 -122.706 790.06)
(600.824 -132.93 812.727)
(601.036 -132.977 812.272)
(613.412 -122.242 789.894)
(613.553 -121.766 789.756)
(613.681 -121.28 789.645)
(614.647 -115.795 789.391)
(614.725 -115.302 789.385)
(616.982 -101.017 789.26)
(617.059 -100.525 789.257)
(617.137 -100.032 789.253)
(617.214 -99.5392 789.25)
(617.292 -99.0466 789.247)
(617.369 -98.5539 789.243)
(617.446 -98.0612 789.24)
(617.524 -97.5685 789.237)
(617.601 -97.0759 789.234)
(617.678 -96.5832 789.231)
(617.755 -96.0905 789.228)
(617.833 -95.5978 789.225)
(617.91 -95.1051 789.222)
(617.987 -94.6124 789.219)
(618.064 -94.1197 789.217)
(618.141 -93.627 789.214)
(618.218 -93.1343 789.211)
(618.295 -92.6416 789.209)
(618.372 -92.1489 789.206)
(618.45 -91.6561 789.204)
(618.526 -91.1634 789.201)
(618.603 -90.6707 789.199)
(595.469 -109.519 831.419)
(595.396 -110.015 831.413)
(618.68 -90.1779 789.197)
(595.543 -109.024 831.424)
(618.757 -89.6852 789.194)
(595.617 -108.529 831.429)
(618.834 -89.1925 789.192)
(595.691 -108.033 831.433)
(618.911 -88.6997 789.19)
(595.765 -107.538 831.438)
(618.988 -88.207 789.188)
(595.838 -107.043 831.443)
(619.065 -87.7142 789.186)
(595.912 -106.547 831.448)
(619.141 -87.2214 789.184)
(595.986 -106.052 831.453)
(619.218 -86.7287 789.182)
(596.06 -105.557 831.457)
(619.295 -86.2359 789.18)
(596.134 -105.061 831.462)
(619.372 -85.7431 789.178)
(596.208 -104.566 831.466)
(619.448 -85.2504 789.176)
(596.282 -104.07 831.471)
(619.525 -84.7576 789.175)
(596.356 -103.575 831.475)
(619.602 -84.2648 789.173)
(596.43 -103.08 831.479)
(619.678 -83.772 789.171)
(596.504 -102.585 831.484)
(619.755 -83.2792 789.17)
(596.578 -102.089 831.488)
(619.832 -82.7864 789.168)
(596.652 -101.594 831.492)
(619.908 -82.2936 789.167)
(596.727 -101.099 831.496)
(619.985 -81.8008 789.165)
(596.801 -100.603 831.5)
(620.061 -81.308 789.164)
(596.875 -100.108 831.504)
(620.138 -80.8152 789.163)
(596.949 -99.6125 831.508)
(620.214 -80.3224 789.161)
(597.023 -99.1177 831.512)
(620.291 -79.8295 789.16)
(597.098 -98.6225 831.516)
(620.367 -79.3367 789.159)
(597.172 -98.127 831.519)
(620.443 -78.8439 789.158)
(620.039 -80.2529 789.563)
(597.246 -97.6315 831.523)
(597.321 -97.1361 831.527)
(620.52 -78.351 789.157)
(620.596 -77.8582 789.156)
(597.395 -96.6409 831.53)
(620.672 -77.3654 789.155)
(597.47 -96.1456 831.534)
(620.748 -76.8725 789.154)
(597.544 -95.6504 831.537)
(620.825 -76.3796 789.153)
(597.619 -95.1551 831.541)
(620.901 -75.8868 789.153)
(597.693 -94.6598 831.544)
(620.977 -75.3939 789.152)
(597.768 -94.1645 831.547)
(621.053 -74.9011 789.151)
(597.842 -93.6693 831.55)
(621.129 -74.4082 789.151)
(597.917 -93.174 831.554)
(621.205 -73.9153 789.15)
(597.991 -92.6788 831.557)
(621.281 -73.4225 789.15)
(598.066 -92.1835 831.56)
(621.357 -72.9296 789.149)
(598.141 -91.6883 831.563)
(621.433 -72.4367 789.149)
(598.215 -91.193 831.566)
(621.51 -71.9438 789.148)
(598.29 -90.6978 831.569)
(621.585 -71.4509 789.148)
(598.365 -90.2026 831.571)
(621.661 -70.9579 789.148)
(598.439 -89.7073 831.574)
(621.737 -70.465 789.148)
(598.514 -89.2121 831.577)
(621.813 -69.9721 789.148)
(598.589 -88.7169 831.58)
(621.889 -69.4792 789.148)
(598.664 -88.2217 831.582)
(621.965 -68.9863 789.148)
(598.739 -87.7264 831.585)
(622.041 -68.4934 789.148)
(598.813 -87.2312 831.587)
(622.117 -67.9958 789.148)
(598.888 -86.736 831.59)
(622.193 -67.4981 789.148)
(598.963 -86.2408 831.592)
(622.27 -67.0004 789.149)
(599.038 -85.7456 831.594)
(622.346 -66.5027 789.149)
(599.113 -85.2504 831.597)
(622.422 -66.005 789.149)
(599.188 -84.7552 831.599)
(622.499 -65.5072 789.15)
(599.263 -84.26 831.601)
(622.575 -65.0095 789.15)
(599.338 -83.7648 831.603)
(622.651 -64.5118 789.151)
(599.413 -83.2696 831.605)
(622.727 -64.0141 789.151)
(599.489 -82.7745 831.607)
(622.804 -63.5164 789.152)
(599.564 -82.2793 831.609)
(622.88 -63.0186 789.153)
(599.639 -81.7841 831.611)
(622.956 -62.5209 789.154)
(599.714 -81.2889 831.613)
(623.032 -62.0231 789.155)
(599.789 -80.7938 831.615)
(623.108 -61.5254 789.156)
(599.865 -80.2986 831.617)
(623.184 -61.0276 789.156)
(599.94 -79.8035 831.618)
(623.26 -60.5299 789.157)
(600.015 -79.3083 831.62)
(623.336 -60.0321 789.159)
(600.09 -78.8132 831.622)
(623.412 -59.5344 789.16)
(600.166 -78.318 831.623)
(623.488 -59.0366 789.161)
(600.241 -77.8229 831.625)
(623.564 -58.5388 789.162)
(600.317 -77.3277 831.626)
(623.64 -58.0411 789.164)
(600.392 -76.8326 831.627)
(623.715 -57.5433 789.165)
(600.467 -76.3375 831.629)
(623.791 -57.0455 789.166)
(600.543 -75.8423 831.63)
(623.867 -56.5477 789.168)
(600.618 -75.3472 831.631)
(623.943 -56.0499 789.169)
(600.694 -74.8521 831.632)
(624.018 -55.5521 789.171)
(600.769 -74.357 831.633)
(624.094 -55.0543 789.172)
(600.845 -73.8619 831.635)
(624.17 -54.5565 789.174)
(600.921 -73.3668 831.635)
(624.245 -54.0587 789.176)
(600.996 -72.8717 831.636)
(624.321 -53.5609 789.178)
(601.072 -72.3766 831.637)
(624.397 -53.0631 789.18)
(601.148 -71.8815 831.638)
(624.472 -52.5653 789.182)
(601.224 -71.3864 831.639)
(624.548 -52.0674 789.183)
(601.299 -70.8913 831.64)
(624.623 -51.5696 789.185)
(601.375 -70.3962 831.64)
(624.699 -51.0718 789.188)
(601.451 -69.9011 831.641)
(624.774 -50.574 789.19)
(601.527 -69.4061 831.642)
(624.85 -50.0761 789.192)
(601.602 -68.911 831.642)
(624.925 -49.5783 789.194)
(601.678 -68.4159 831.643)
(625.001 -49.0804 789.196)
(601.754 -67.9209 831.643)
(625.076 -48.5826 789.199)
(601.83 -67.4258 831.643)
(625.151 -48.0847 789.201)
(601.906 -66.9308 831.644)
(625.227 -47.5869 789.203)
(601.982 -66.4357 831.644)
(625.302 -47.089 789.206)
(602.058 -65.9407 831.644)
(625.377 -46.5912 789.209)
(602.134 -65.4456 831.644)
(625.453 -46.0933 789.211)
(602.21 -64.9508 831.644)
(625.528 -45.5954 789.214)
(602.286 -64.4559 831.644)
(625.603 -45.0976 789.217)
(602.363 -63.9611 831.644)
(625.678 -44.5997 789.219)
(602.439 -63.4663 831.644)
(625.753 -44.1018 789.222)
(602.515 -62.9715 831.644)
(625.828 -43.6039 789.225)
(602.591 -62.4767 831.644)
(625.903 -43.1057 789.228)
(602.667 -61.9819 831.644)
(625.979 -42.6074 789.231)
(602.744 -61.4871 831.644)
(626.054 -42.1092 789.234)
(602.82 -60.9923 831.643)
(626.129 -41.6109 789.237)
(602.896 -60.4975 831.643)
(626.204 -41.1127 789.24)
(602.972 -60.0027 831.643)
(626.279 -40.6144 789.244)
(603.049 -59.5079 831.642)
(626.354 -40.1161 789.247)
(603.125 -59.0131 831.641)
(626.429 -39.6178 789.25)
(603.201 -58.5183 831.641)
(626.504 -39.1196 789.254)
(603.278 -58.0236 831.64)
(626.579 -38.6213 789.257)
(603.354 -57.5288 831.64)
(626.654 -38.123 789.261)
(603.431 -57.034 831.639)
(626.728 -37.6247 789.264)
(603.507 -56.5393 831.638)
(626.803 -37.1264 789.268)
(603.584 -56.0445 831.637)
(626.878 -36.6281 789.271)
(603.66 -55.5498 831.636)
(626.953 -36.1298 789.275)
(603.737 -55.055 831.635)
(627.028 -35.6315 789.279)
(603.813 -54.5603 831.634)
(627.102 -35.1332 789.283)
(603.89 -54.0655 831.633)
(627.177 -34.6349 789.287)
(603.967 -53.5708 831.632)
(627.252 -34.1366 789.291)
(604.044 -53.0761 831.631)
(627.326 -33.6383 789.295)
(604.12 -52.5814 831.63)
(604.197 -52.0866 831.628)
(627.401 -33.14 789.299)
(627.476 -32.6417 789.303)
(604.274 -51.5919 831.627)
(627.55 -32.1434 789.307)
(604.351 -51.0972 831.626)
(627.625 -31.645 789.311)
(604.427 -50.6025 831.624)
(627.699 -31.1467 789.316)
(604.504 -50.1078 831.623)
(604.581 -49.6131 831.621)
(627.774 -30.6484 789.32)
(604.658 -49.1184 831.62)
(627.849 -30.15 789.325)
(604.735 -48.6237 831.618)
(627.923 -29.6517 789.329)
(627.997 -29.1534 789.333)
(604.812 -48.129 831.616)
(604.889 -47.6343 831.615)
(628.072 -28.655 789.338)
(628.146 -28.1567 789.343)
(604.966 -47.1396 831.613)
(605.043 -46.645 831.611)
(628.221 -27.6583 789.347)
(605.12 -46.1503 831.609)
(628.295 -27.16 789.352)
(605.197 -45.6556 831.607)
(628.369 -26.6616 789.357)
(605.274 -45.161 831.605)
(628.444 -26.1633 789.362)
(605.351 -44.6663 831.603)
(628.518 -25.6649 789.367)
(605.428 -44.1717 831.601)
(628.592 -25.1665 789.372)
(605.506 -43.677 831.599)
(628.666 -24.6682 789.377)
(605.583 -43.1824 831.596)
(628.741 -24.1698 789.382)
(605.66 -42.6877 831.594)
(628.815 -23.6714 789.387)
(605.737 -42.1931 831.592)
(628.889 -23.173 789.393)
(605.815 -41.6985 831.589)
(628.963 -22.6747 789.398)
(605.892 -41.2038 831.587)
(629.037 -22.1763 789.403)
(605.969 -40.7092 831.584)
(629.111 -21.6779 789.409)
(606.047 -40.2142 831.582)
(629.185 -21.1795 789.414)
(606.124 -39.7192 831.579)
(629.26 -20.6811 789.42)
(606.202 -39.2242 831.576)
(629.334 -20.1827 789.425)
(606.279 -38.7292 831.573)
(629.408 -19.6844 789.431)
(606.357 -38.2342 831.571)
(629.482 -19.186 789.437)
(606.434 -37.7392 831.568)
(629.556 -18.6876 789.442)
(606.512 -37.2442 831.565)
(629.631 -18.1751 789.449)
(606.589 -36.7492 831.562)
(629.704 -17.6623 789.463)
(606.667 -36.2543 831.559)
(629.771 -17.1491 789.487)
(606.745 -35.7593 831.556)
(629.83 -16.6361 789.528)
(606.823 -35.2643 831.553)
(629.878 -16.1241 789.59)
(606.9 -34.7694 831.549)
(629.915 -15.6145 789.676)
(606.978 -34.2744 831.546)
(629.938 -15.1095 789.788)
(607.056 -33.7795 831.543)
(629.947 -14.611 789.929)
(607.133 -33.2845 831.539)
(607.211 -32.7896 831.536)
(629.941 -14.1211 790.097)
(607.289 -32.2946 831.532)
(629.921 -13.6413 790.292)
(607.367 -31.7997 831.529)
(629.889 -13.1804 790.505)
(607.445 -31.3048 831.525)
(629.846 -12.7299 790.738)
(607.523 -30.8098 831.522)
(629.794 -12.2889 790.987)
(607.601 -30.3149 831.518)
(629.735 -11.8557 791.247)
(607.679 -29.82 831.514)
(629.671 -11.4281 791.516)
(607.757 -29.3251 831.51)
(629.605 -11.0034 791.79)
(607.835 -28.8302 831.506)
(607.913 -28.3353 831.503)
(629.536 -10.5817 792.067)
(607.991 -27.8404 831.498)
(629.465 -10.163 792.348)
(629.392 -9.74733 792.634)
(608.069 -27.3455 831.495)
(608.147 -26.8506 831.49)
(629.316 -9.33479 792.923)
(608.225 -26.3557 831.486)
(629.238 -8.92543 793.216)
(608.303 -25.8608 831.482)
(629.158 -8.51929 793.513)
(608.382 -25.3659 831.478)
(629.075 -8.11643 793.813)
(608.46 -24.8711 831.473)
(628.99 -7.71691 794.118)
(608.538 -24.3762 831.469)
(628.902 -7.32079 794.426)
(608.616 -23.8813 831.464)
(628.813 -6.92812 794.738)
(608.695 -23.3865 831.46)
(628.72 -6.53897 795.053)
(608.773 -22.8916 831.455)
(628.626 -6.15339 795.372)
(608.851 -22.3968 831.451)
(628.529 -5.77144 795.695)
(608.93 -21.9019 831.446)
(628.43 -5.39319 796.022)
(609.008 -21.4071 831.441)
(609.086 -20.9123 831.436)
(628.328 -5.01868 796.352)
(609.165 -20.4174 831.431)
(628.224 -4.648 796.685)
(609.243 -19.9226 831.426)
(628.126 -4.31088 796.997)
(609.322 -19.4278 831.421)
(628.025 -3.98271 797.316)
(609.4 -18.9329 831.416)
(627.917 -3.67151 797.65)
(627.799 -3.38411 798.001)
(609.479 -18.4381 831.411)
(627.603 -3.23217 798.424)
(609.557 -17.9433 831.406)
(627.408 -3.08024 798.848)
(609.636 -17.4485 831.4)
(627.213 -2.9283 799.271)
(627.018 -2.77637 799.694)
(609.715 -16.9537 831.395)
(626.836 -2.65705 800.127)
(609.793 -16.4589 831.39)
(626.651 -2.55138 800.562)
(626.448 -2.44408 801.032)
(609.872 -15.9641 831.384)
(626.244 -2.34157 801.503)
(626.037 -2.24367 801.974)
(609.949 -15.4847 831.378)
(625.83 -2.1502 802.446)
(610.028 -15.0057 831.366)
(625.621 -2.06096 802.917)
(625.411 -1.97581 803.389)
(610.112 -14.528 831.343)
(625.199 -1.89459 803.861)
(610.203 -14.0525 831.306)
(624.987 -1.81713 804.333)
(624.773 -1.74331 804.805)
(610.302 -13.5805 831.249)
(624.558 -1.67296 805.278)
(624.394 -1.62145 805.638)
(610.411 -13.1139 831.171)
(624.229 -1.57109 805.999)
(610.53 -12.6544 831.069)
(624.017 -1.50935 806.459)
(610.66 -12.2039 830.942)
(623.805 -1.45105 806.919)
(623.592 -1.39613 807.38)
(610.8 -11.7639 830.792)
(623.379 -1.34454 807.841)
(623.165 -1.29623 808.301)
(610.948 -11.3349 830.62)
(622.95 -1.25113 808.762)
(611.09 -10.9536 830.446)
(622.735 -1.20922 809.223)
(611.237 -10.5804 830.259)
(622.519 -1.17045 809.684)
(611.389 -10.2139 830.062)
(622.303 -1.13482 810.145)
(611.542 -9.85215 829.859)
(622.087 -1.1023 810.606)
(621.87 -1.0729 811.067)
(611.722 -9.43541 829.619)
(621.652 -1.04662 811.528)
(611.904 -9.02181 829.374)
(621.434 -1.02347 811.989)
(612.087 -8.61142 829.125)
(621.216 -1.00349 812.449)
(612.272 -8.20428 828.872)
(620.997 -0.986707 812.91)
(620.778 -0.973161 813.371)
(612.458 -7.80043 828.614)
(612.646 -7.39994 828.353)
(620.558 -0.962897 813.831)
(620.338 -0.955955 814.291)
(612.835 -7.00286 828.087)
(620.117 -0.952372 814.752)
(619.896 -0.952177 815.211)
(613.026 -6.60922 827.818)
(619.693 -0.954518 815.633)
(613.218 -6.21909 827.544)
(619.489 -0.958787 816.054)
(613.411 -5.83252 827.266)
(619.276 -0.965825 816.49)
(619.063 -0.975882 816.927)
(613.606 -5.44956 826.984)
(618.849 -0.989064 817.363)
(613.802 -5.07025 826.698)
(618.635 -1.00549 817.799)
(613.999 -4.69466 826.409)
(618.42 -1.0253 818.234)
(618.204 -1.04862 818.669)
(614.198 -4.32284 826.115)
(617.987 -1.07561 819.103)
(617.77 -1.1064 819.537)
(614.398 -3.95483 825.817)
(617.552 -1.14114 819.97)
(614.599 -3.5907 825.516)
(617.333 -1.17995 820.402)
(614.802 -3.2305 825.21)
(617.113 -1.22291 820.833)
(616.867 -1.27951 821.312)
(614.997 -2.89068 824.913)
(616.621 -1.3568 821.787)
(615.194 -2.56424 824.603)
(616.42 -1.46614 822.226)
(616.218 -1.56616 822.667)
(615.395 -2.2585 824.275)
(616.017 -1.65688 823.11)
(615.601 -1.98043 823.925)
(615.811 -1.73615 823.554)
(615.739 -108.899 789.323)
(615.817 -108.406 789.319)
(615.895 -107.914 789.315)
(615.973 -107.421 789.31)
(616.05 -106.929 789.306)
(616.128 -106.436 789.302)
(616.206 -105.943 789.298)
(616.284 -105.451 789.294)
(616.361 -104.958 789.29)
(616.439 -104.466 789.286)
(616.517 -103.973 789.282)
(616.594 -103.48 789.278)
(616.672 -102.988 789.275)
(616.749 -102.495 789.271)
(616.827 -102.002 789.267)
(616.904 -101.51 789.264)
(607.55 -132.737 798.781)
(607.759 -132.565 798.384)
(606.029 -133.198 801.817)
(606.251 -133.164 801.366)
(605.807 -133.228 802.269)
(605.585 -133.254 802.721)
(605.364 -133.275 803.174)
(605.143 -133.293 803.627)
(604.923 -133.306 804.08)
(604.703 -133.316 804.534)
(604.484 -133.322 804.988)
(604.265 -133.324 805.442)
(604.046 -133.323 805.897)
(603.828 -133.319 806.352)
(603.61 -133.311 806.807)
(603.393 -133.301 807.262)
(603.177 -133.287 807.717)
(602.961 -133.269 808.172)
(602.745 -133.249 808.628)
(602.529 -133.226 809.083)
(611.996 -125.604 791.761)
(612.187 -125.218 791.487)
(602.315 -133.199 809.538)
(612.378 -124.825 791.216)
(602.1 -133.17 809.994)
(613.798 -120.785 789.561)
(613.904 -120.285 789.5)
(614.001 -119.781 789.46)
(614.091 -119.274 789.437)
(614.175 -118.766 789.424)
(614.256 -118.257 789.417)
(614.334 -117.765 789.412)
(614.413 -117.272 789.406)
(614.491 -116.78 789.401)
(614.569 -116.287 789.396)
(614.803 -114.81 789.38)
(615.038 -113.332 789.365)
(615.116 -112.84 789.36)
(615.583 -109.884 789.332)
(615.661 -109.392 789.328)
(601.46 -133.063 811.361)
(601.248 -133.022 811.816)
(600.613 -132.879 813.182)
(600.403 -132.825 813.637)
(600.193 -132.768 814.092)
(599.984 -132.707 814.547)
(599.775 -132.643 815.002)
(597.726 -131.797 819.53)
(597.927 -131.901 819.08)
(595.719 -129.363 824.555)
(595.823 -129.723 824.217)
(614.959 -113.825 789.37)
(594.288 -119.456 830.69)
(594.307 -119.928 830.499)
(594.281 -118.975 830.858)
(594.289 -118.486 831.001)
(594.31 -117.99 831.116)
(594.344 -117.49 831.205)
(594.391 -116.986 831.27)
(594.449 -116.481 831.313)
(594.514 -115.977 831.339)
(594.585 -115.473 831.352)
(594.66 -114.969 831.359)
(594.733 -114.473 831.365)
(594.807 -113.978 831.37)
(594.88 -113.482 831.376)
(594.954 -112.987 831.381)
(595.027 -112.492 831.387)
(595.101 -111.996 831.392)
(595.174 -111.501 831.398)
(595.248 -111.005 831.403)
(595.322 -110.51 831.408)
(594.926 -125.266 827.514)
(594.994 -125.692 827.236)
(594.86 -124.836 827.788)
(594.796 -124.403 828.057)
(594.735 -123.968 828.323)
(594.676 -123.53 828.585)
(594.62 -123.089 828.842)
(594.566 -122.645 829.096)
(594.514 -122.198 829.345)
(594.465 -121.75 829.59)
(594.418 -121.298 829.831)
(594.375 -120.847 830.065)
(594.337 -120.391 830.289)
(607.339 -132.87 799.192)
(607.965 -132.355 798.004)
(608.169 -132.111 797.643)
(607.126 -132.966 799.612)
(608.371 -131.842 797.3)
(606.912 -133.032 800.037)
(608.571 -131.553 796.972)
(606.698 -133.081 800.465)
(608.771 -131.254 796.653)
(606.475 -133.125 800.915)
(608.981 -130.931 796.32)
(609.191 -130.604 795.99)
(609.399 -130.273 795.664)
(609.606 -129.938 795.341)
(609.812 -129.598 795.022)
(610.017 -129.255 794.707)
(610.22 -128.907 794.395)
(610.423 -128.555 794.087)
(610.624 -128.199 793.783)
(610.824 -127.84 793.482)
(611.022 -127.476 793.186)
(611.22 -127.109 792.893)
(611.416 -126.738 792.604)
(611.61 -126.364 792.319)
(611.804 -125.985 792.038)
(599.567 -132.576 815.456)
(599.36 -132.506 815.911)
(599.153 -132.431 816.365)
(598.947 -132.353 816.818)
(598.742 -132.271 817.271)
(598.537 -132.185 817.724)
(598.333 -132.095 818.176)
(598.13 -132 818.628)
(597.526 -131.688 819.98)
(597.327 -131.574 820.429)
(597.129 -131.455 820.877)
(596.932 -131.329 821.325)
(596.74 -131.19 821.77)
(596.555 -131.029 822.211)
(596.38 -130.84 822.645)
(596.218 -130.617 823.067)
(596.071 -130.355 823.472)
(595.939 -130.056 823.857)
(614.881 -114.317 789.375)
(595.626 -128.983 824.873)
(595.54 -128.591 825.179)
(615.194 -112.347 789.356)
(595.455 -128.186 825.484)
(615.272 -111.854 789.351)
(615.35 -111.362 789.346)
(595.372 -127.779 825.786)
(615.428 -110.869 789.341)
(595.292 -127.368 826.084)
(615.505 -110.377 789.337)
(595.214 -126.954 826.378)
(595.138 -126.536 826.668)
(595.065 -126.116 826.954)
)

// edges

659
(
(0 1)
(2 3)
(1 4)
(4 5)
(5 6)
(7 8)
(6 9)
(9 10)
(10 11)
(12 13)
(14 15)
(15 16)
(16 17)
(17 18)
(18 19)
(19 20)
(20 21)
(21 22)
(22 23)
(23 24)
(24 25)
(25 26)
(26 27)
(27 28)
(28 29)
(29 30)
(30 31)
(31 32)
(32 33)
(33 34)
(34 35)
(36 37)
(35 38)
(39 36)
(38 40)
(41 39)
(40 42)
(43 41)
(42 44)
(45 43)
(44 46)
(47 45)
(46 48)
(49 47)
(48 50)
(51 49)
(50 52)
(53 51)
(52 54)
(55 53)
(54 56)
(57 55)
(56 58)
(59 57)
(58 60)
(61 59)
(60 62)
(63 61)
(62 64)
(65 63)
(64 66)
(67 65)
(66 68)
(69 67)
(68 70)
(71 69)
(70 72)
(73 71)
(72 74)
(75 73)
(74 76)
(77 75)
(76 78)
(79 77)
(78 80)
(81 79)
(80 82)
(83 81)
(84 85)
(82 84)
(86 83)
(87 86)
(85 88)
(88 89)
(90 87)
(89 91)
(92 90)
(91 93)
(94 92)
(93 95)
(96 94)
(95 97)
(98 96)
(97 99)
(100 98)
(99 101)
(102 100)
(101 103)
(104 102)
(103 105)
(106 104)
(105 107)
(108 106)
(107 109)
(110 108)
(109 111)
(112 110)
(111 113)
(114 112)
(113 115)
(116 114)
(115 117)
(118 116)
(117 119)
(120 118)
(119 121)
(122 120)
(121 123)
(124 122)
(123 125)
(126 124)
(125 127)
(128 126)
(127 129)
(130 128)
(129 131)
(132 130)
(131 133)
(134 132)
(133 135)
(136 134)
(135 137)
(138 136)
(137 139)
(140 138)
(139 141)
(142 140)
(141 143)
(144 142)
(143 145)
(146 144)
(145 147)
(148 146)
(147 149)
(150 148)
(149 151)
(152 150)
(151 153)
(154 152)
(153 155)
(156 154)
(155 157)
(158 156)
(157 159)
(160 158)
(159 161)
(162 160)
(161 163)
(164 162)
(163 165)
(166 164)
(165 167)
(168 166)
(167 169)
(170 168)
(169 171)
(172 170)
(171 173)
(174 172)
(173 175)
(176 174)
(175 177)
(178 176)
(177 179)
(180 178)
(179 181)
(182 180)
(181 183)
(184 182)
(183 185)
(186 184)
(185 187)
(188 186)
(187 189)
(190 188)
(189 191)
(192 190)
(191 193)
(194 192)
(193 195)
(196 194)
(195 197)
(198 196)
(197 199)
(200 198)
(199 201)
(202 200)
(201 203)
(204 202)
(203 205)
(206 204)
(205 207)
(208 206)
(207 209)
(210 208)
(209 211)
(212 210)
(211 213)
(214 212)
(213 215)
(216 214)
(215 217)
(218 216)
(217 219)
(220 218)
(219 221)
(222 220)
(221 223)
(224 222)
(223 225)
(226 224)
(225 227)
(228 226)
(227 229)
(230 228)
(229 231)
(232 230)
(231 233)
(234 232)
(233 235)
(236 234)
(235 237)
(238 236)
(237 239)
(240 238)
(239 241)
(242 240)
(241 243)
(244 242)
(243 245)
(246 244)
(245 247)
(248 246)
(247 249)
(250 248)
(249 251)
(252 250)
(251 253)
(254 252)
(253 255)
(256 254)
(255 257)
(258 256)
(257 259)
(260 258)
(259 261)
(262 260)
(261 263)
(264 262)
(263 265)
(266 264)
(265 267)
(268 266)
(269 268)
(267 270)
(270 271)
(272 269)
(271 273)
(274 272)
(273 275)
(276 274)
(275 277)
(278 276)
(279 278)
(277 280)
(281 279)
(280 282)
(283 281)
(282 284)
(284 285)
(286 283)
(287 286)
(285 288)
(288 289)
(290 287)
(291 290)
(289 292)
(293 291)
(292 294)
(295 293)
(294 296)
(297 295)
(296 298)
(299 297)
(298 300)
(301 299)
(300 302)
(303 301)
(302 304)
(305 303)
(304 306)
(307 305)
(306 308)
(309 307)
(308 310)
(311 309)
(310 312)
(313 311)
(312 314)
(315 313)
(314 316)
(317 315)
(316 318)
(319 317)
(318 320)
(321 319)
(320 322)
(323 321)
(322 324)
(325 323)
(324 326)
(327 325)
(326 328)
(329 327)
(328 330)
(331 329)
(330 332)
(333 331)
(332 334)
(335 333)
(334 336)
(337 335)
(336 338)
(339 337)
(338 340)
(341 339)
(340 342)
(343 341)
(342 344)
(345 343)
(346 345)
(344 347)
(348 346)
(347 349)
(350 348)
(349 351)
(352 350)
(351 353)
(354 352)
(353 355)
(356 354)
(355 357)
(358 356)
(357 359)
(360 358)
(359 361)
(362 360)
(363 362)
(361 364)
(365 363)
(364 366)
(366 367)
(368 365)
(369 368)
(367 370)
(371 369)
(370 372)
(373 371)
(372 374)
(375 373)
(374 376)
(377 375)
(376 378)
(379 377)
(378 380)
(381 379)
(380 382)
(383 381)
(382 384)
(385 383)
(384 386)
(387 385)
(386 388)
(389 387)
(388 390)
(391 389)
(392 391)
(390 393)
(394 392)
(393 395)
(396 394)
(395 397)
(398 396)
(397 399)
(400 398)
(399 401)
(401 402)
(403 400)
(402 404)
(405 403)
(404 406)
(407 405)
(406 408)
(408 409)
(410 407)
(409 411)
(412 410)
(411 413)
(413 414)
(415 412)
(414 416)
(416 417)
(418 415)
(417 419)
(420 418)
(419 421)
(421 422)
(423 420)
(422 424)
(425 423)
(424 426)
(426 427)
(428 425)
(427 429)
(429 430)
(431 428)
(430 432)
(433 431)
(432 434)
(435 433)
(434 436)
(436 437)
(438 435)
(437 439)
(439 440)
(441 438)
(440 442)
(443 441)
(442 444)
(445 443)
(444 446)
(447 445)
(446 448)
(449 447)
(448 450)
(450 451)
(452 449)
(451 453)
(454 452)
(453 455)
(456 454)
(455 457)
(458 456)
(457 459)
(459 460)
(461 458)
(462 461)
(460 463)
(463 464)
(465 462)
(464 466)
(466 467)
(468 465)
(467 469)
(470 468)
(469 471)
(472 470)
(471 473)
(473 474)
(475 472)
(474 476)
(477 475)
(476 478)
(479 477)
(478 480)
(480 481)
(482 479)
(481 483)
(483 484)
(485 482)
(484 486)
(487 485)
(486 488)
(489 487)
(488 490)
(490 491)
(492 489)
(491 493)
(494 492)
(493 495)
(495 496)
(497 494)
(496 498)
(499 497)
(498 500)
(500 499)
(501 502)
(502 503)
(503 504)
(504 505)
(505 506)
(506 507)
(507 508)
(508 509)
(509 510)
(510 511)
(511 512)
(512 513)
(513 514)
(514 515)
(515 516)
(516 14)
(517 518)
(519 520)
(521 519)
(522 521)
(523 522)
(524 523)
(525 524)
(526 525)
(527 526)
(528 527)
(529 528)
(530 529)
(531 530)
(532 531)
(533 532)
(534 533)
(535 534)
(536 535)
(537 538)
(539 536)
(538 540)
(541 539)
(540 0)
(3 541)
(11 542)
(542 543)
(543 544)
(544 545)
(545 546)
(546 547)
(547 548)
(548 549)
(549 550)
(550 551)
(551 12)
(13 552)
(553 554)
(555 556)
(556 501)
(557 2)
(558 557)
(8 558)
(559 7)
(560 559)
(561 560)
(562 561)
(563 562)
(564 565)
(566 567)
(568 553)
(569 570)
(571 569)
(572 571)
(573 572)
(574 573)
(575 574)
(576 575)
(577 576)
(578 577)
(579 578)
(580 579)
(581 580)
(582 581)
(583 582)
(584 583)
(585 584)
(586 585)
(587 586)
(588 587)
(37 588)
(589 590)
(591 589)
(592 591)
(593 592)
(594 593)
(595 594)
(596 595)
(597 596)
(598 597)
(599 598)
(600 599)
(601 600)
(570 601)
(602 517)
(518 603)
(603 604)
(605 602)
(604 606)
(607 605)
(606 608)
(609 607)
(608 610)
(611 609)
(610 612)
(520 611)
(612 613)
(613 614)
(614 615)
(615 616)
(616 617)
(617 618)
(618 619)
(619 620)
(620 621)
(621 622)
(622 623)
(623 624)
(624 625)
(625 626)
(626 537)
(627 563)
(628 627)
(629 628)
(630 629)
(631 630)
(632 631)
(633 632)
(634 633)
(565 634)
(635 564)
(636 635)
(637 636)
(638 637)
(639 638)
(640 639)
(641 640)
(642 641)
(643 642)
(644 643)
(552 645)
(567 644)
(645 568)
(646 566)
(647 646)
(554 648)
(649 647)
(648 650)
(650 651)
(652 649)
(651 653)
(654 652)
(653 655)
(656 654)
(655 555)
(657 656)
(658 657)
(590 658)
)

// concaveStart mixedStart nonFeatureStart
0 0 0
// internalStart flatStart openStart multipleStart
0 0 0 659
// normals

658
(
(0.894545 -0.141831 0.423878)
(0.890451 -0.152923 0.428617)
(0.89509 -0.141926 0.422695)
(0.895129 -0.141881 0.422628)
(0.895128 -0.141885 0.422627)
(0.889763 -0.152087 0.430339)
(0.894465 -0.139035 0.424973)
(0.893305 -0.140858 0.426809)
(0.894049 -0.138281 0.426092)
(0.89713 -0.13685 0.420035)
(0.904196 -0.139105 0.403832)
(0.904155 -0.139756 0.403699)
(0.903764 -0.138693 0.404938)
(0.903761 -0.140656 0.404267)
(0.903807 -0.137985 0.405085)
(0.90413 -0.138783 0.40409)
(0.905808 -0.140978 0.399546)
(0.903457 -0.138809 0.405584)
(0.904891 -0.138912 0.402337)
(0.904706 -0.138993 0.402726)
(0.902605 -0.140378 0.406939)
(0.903999 -0.138761 0.404391)
(0.903966 -0.138865 0.404428)
(0.904093 -0.139691 0.403859)
(0.903532 -0.138681 0.405461)
(0.903652 -0.138814 0.405147)
(0.904579 -0.139659 0.40278)
(0.903735 -0.138828 0.404956)
(0.899672 -0.140714 0.413268)
(0.905474 -0.137213 0.401607)
(0.903218 -0.139546 0.405862)
(0.857698 -0.132222 0.496861)
(0.903253 -0.139462 0.405814)
(0.857971 -0.133341 0.496091)
(0.903194 -0.138685 0.40621)
(0.858004 -0.133238 0.496061)
(0.903615 -0.139548 0.404977)
(0.859132 -0.132087 0.494415)
(0.90365 -0.13959 0.404883)
(0.859263 -0.133511 0.493804)
(0.902002 -0.139233 0.408665)
(0.856555 -0.131362 0.499057)
(0.902013 -0.139318 0.40861)
(0.857904 -0.132957 0.49631)
(0.900906 -0.137285 0.411729)
(0.858049 -0.133352 0.495954)
(0.902885 -0.139491 0.406621)
(0.858247 -0.132233 0.495911)
(0.901574 -0.139134 0.409641)
(0.857682 -0.132928 0.496701)
(0.901511 -0.139235 0.409746)
(0.858459 -0.132431 0.49549)
(0.901701 -0.137442 0.409934)
(0.859122 -0.133117 0.494154)
(0.897944 -0.139473 0.417426)
(0.858268 -0.132342 0.495844)
(0.899622 -0.138811 0.414019)
(0.858237 -0.132295 0.49591)
(0.901897 -0.137448 0.409499)
(0.858428 -0.1334 0.495283)
(0.899632 -0.139743 0.413684)
(0.858965 -0.132064 0.49471)
(0.899975 -0.138921 0.413215)
(0.858656 -0.132352 0.49517)
(0.899907 -0.138005 0.413669)
(0.856058 -0.133728 0.49928)
(0.900366 -0.138932 0.412357)
(0.859956 -0.132364 0.492905)
(0.899452 -0.137873 0.4147)
(0.859144 -0.132418 0.494305)
(0.897567 -0.139465 0.418237)
(0.858821 -0.132179 0.49493)
(0.899361 -0.136983 0.415193)
(0.859205 -0.132583 0.494154)
(0.898854 -0.13959 0.415423)
(0.860014 -0.134217 0.492302)
(0.898367 -0.1377 0.417103)
(0.860097 -0.131382 0.492921)
(0.898367 -0.1377 0.417103)
(0.85949 -0.13233 0.493727)
(0.860678 -0.134255 0.491131)
(0.897923 -0.137865 0.418004)
(0.898323 -0.137693 0.4172)
(0.859968 -0.131609 0.493087)
(0.898323 -0.137693 0.4172)
(0.86372 -0.134592 0.485667)
(0.898385 -0.137622 0.41709)
(0.860122 -0.13157 0.492828)
(0.897816 -0.139477 0.4177)
(0.862475 -0.134588 0.487876)
(0.897632 -0.138414 0.418447)
(0.86158 -0.13164 0.490256)
(0.897037 -0.137408 0.420052)
(0.861154 -0.133382 0.490533)
(0.89679 -0.13745 0.420566)
(0.862558 -0.131802 0.488489)
(0.896729 -0.138358 0.420397)
(0.858768 -0.134083 0.49451)
(0.896359 -0.137352 0.421515)
(0.859971 -0.131549 0.493098)
(0.897089 -0.13833 0.419638)
(0.862072 -0.133405 0.488913)
(0.89562 -0.137185 0.423136)
(0.862176 -0.133552 0.488689)
(0.895441 -0.138046 0.423236)
(0.861777 -0.131773 0.489874)
(0.895703 -0.139137 0.422324)
(0.861254 -0.133317 0.490375)
(0.893717 -0.136009 0.427517)
(0.862007 -0.132565 0.489255)
(0.894806 -0.137922 0.424617)
(0.863098 -0.131956 0.487494)
(0.894798 -0.137947 0.424625)
(0.863366 -0.133673 0.486549)
(0.894799 -0.137949 0.424624)
(0.86341 -0.133728 0.486457)
(0.894799 -0.137949 0.424624)
(0.863045 -0.132655 0.487397)
(0.893507 -0.137858 0.427364)
(0.862843 -0.133679 0.487475)
(0.893517 -0.137751 0.427377)
(0.864956 -0.13112 0.484416)
(0.892971 -0.136365 0.42896)
(0.861228 -0.133479 0.490376)
(0.892993 -0.136343 0.428921)
(0.863188 -0.132676 0.487138)
(0.891836 -0.138868 0.430517)
(0.863235 -0.132742 0.487037)
(0.891765 -0.136156 0.431528)
(0.863433 -0.133623 0.486445)
(0.892968 -0.136337 0.428975)
(0.863705 -0.132812 0.486184)
(0.890257 -0.138658 0.433839)
(0.863707 -0.13281 0.486181)
(0.891599 -0.136128 0.431879)
(0.863472 -0.132777 0.486606)
(0.891611 -0.136979 0.431586)
(0.86343 -0.13271 0.4867)
(0.891171 -0.136063 0.432784)
(0.863725 -0.134541 0.485672)
(0.893912 -0.139182 0.426087)
(0.864389 -0.132909 0.484939)
(0.890191 -0.136793 0.434566)
(0.864487 -0.132818 0.484791)
(0.890206 -0.136769 0.434542)
(0.864627 -0.132883 0.484523)
(0.890204 -0.136795 0.434539)
(0.86491 -0.13301 0.483983)
(0.890193 -0.136766 0.434571)
(0.866715 -0.134951 0.480201)
(0.889482 -0.135888 0.436298)
(0.865285 -0.132052 0.483574)
(0.890581 -0.136825 0.433755)
(0.865274 -0.133036 0.483325)
(0.889772 -0.137584 0.435175)
(0.866063 -0.133178 0.481869)
(0.889542 -0.136671 0.43593)
(0.866691 -0.133942 0.480527)
(0.889561 -0.136699 0.435883)
(0.867173 -0.133336 0.479825)
(0.888481 -0.136595 0.438113)
(0.867789 -0.134106 0.478495)
(0.887315 -0.137257 0.440263)
(0.867197 -0.132396 0.480042)
(0.889796 -0.134937 0.435954)
(0.867048 -0.133211 0.480087)
(0.888754 -0.13658 0.437565)
(0.868058 -0.134253 0.477966)
(0.88729 -0.137225 0.440325)
(0.866734 -0.13216 0.480942)
(0.888399 -0.136473 0.438318)
(0.868617 -0.134316 0.476931)
(0.888994 -0.13573 0.43734)
(0.866578 -0.132245 0.481201)
(0.888806 -0.136533 0.437473)
(0.868235 -0.1352 0.477377)