/*--------------------------------*- C++ -*----------------------------------*\
  =========                 |
  \\      /  F ield         | OpenFOAM: The Open Source CFD Toolbox
   \\    /   O peration     | Website:  https://openfoam.org
    \\  /    A nd           | Version:  11
     \\/     M anipulation  |
\*---------------------------------------------------------------------------*/
FoamFile
{
    format      ascii;
    class       extendedFeatureEdgeMesh;
    location    "constant/extendedFeatureEdgeMesh";
    object      Outlet2s.extendedFeatureEdgeMesh;
}
// * * * * * * * * * * * * * * * * * * * * * * * * * * * * * * * * * * * * * //

// points

658
(
(0.612567 -0.124424 0.790952)
(0.612751 -0.124014 0.790701)
(0.601673 -0.133102 0.810905)
(0.601886 -0.133137 0.81045)
(0.60146 -0.133063 0.811361)
(0.612929 -0.123591 0.790466)
(0.601248 -0.133022 0.811816)
(0.613099 -0.123156 0.790252)
(0.601036 -0.132977 0.812272)
(0.613261 -0.122706 0.79006)
(0.600824 -0.13293 0.812727)
(0.600613 -0.132879 0.813182)
(0.613412 -0.122242 0.789894)
(0.600403 -0.132825 0.813637)
(0.613553 -0.121766 0.789756)
(0.600193 -0.132768 0.814092)
(0.599984 -0.132707 0.814547)
(0.613681 -0.12128 0.789645)
(0.599775 -0.132643 0.815002)
(0.597726 -0.131797 0.81953)
(0.597927 -0.131901 0.81908)
(0.614647 -0.115795 0.789391)
(0.614725 -0.115302 0.789385)
(0.595719 -0.129363 0.824555)
(0.595823 -0.129723 0.824217)
(0.614959 -0.113825 0.78937)
(0.615038 -0.113332 0.789365)
(0.594288 -0.119456 0.83069)
(0.594307 -0.119928 0.830499)
(0.616982 -0.101017 0.78926)
(0.617059 -0.100525 0.789257)
(0.594281 -0.118975 0.830858)
(0.617137 -0.100032 0.789253)
(0.594289 -0.118486 0.831001)
(0.617214 -0.0995392 0.78925)
(0.59431 -0.11799 0.831116)
(0.617292 -0.0990466 0.789247)
(0.594344 -0.11749 0.831205)
(0.617369 -0.0985539 0.789243)
(0.594391 -0.116986 0.83127)
(0.617446 -0.0980612 0.78924)
(0.594449 -0.116481 0.831313)
(0.617524 -0.0975685 0.789237)
(0.594514 -0.115977 0.831339)
(0.617601 -0.0970759 0.789234)
(0.594585 -0.115473 0.831352)
(0.617678 -0.0965832 0.789231)
(0.617755 -0.0960905 0.789228)
(0.59466 -0.114969 0.831359)
(0.617833 -0.0955978 0.789225)
(0.594733 -0.114473 0.831365)
(0.61791 -0.0951051 0.789222)
(0.594807 -0.113978 0.83137)
(0.617987 -0.0946124 0.789219)
(0.59488 -0.113482 0.831376)
(0.618064 -0.0941197 0.789217)
(0.594954 -0.112987 0.831381)
(0.618141 -0.093627 0.789214)
(0.595027 -0.112492 0.831387)
(0.618218 -0.0931343 0.789211)
(0.595101 -0.111996 0.831392)
(0.618295 -0.0926416 0.789209)
(0.595174 -0.111501 0.831398)
(0.618372 -0.0921489 0.789206)
(0.595248 -0.111005 0.831403)
(0.61845 -0.0916561 0.789204)
(0.595322 -0.11051 0.831408)
(0.618526 -0.0911634 0.789201)
(0.595396 -0.110015 0.831413)
(0.618603 -0.0906707 0.789199)
(0.595469 -0.109519 0.831419)
(0.61868 -0.0901779 0.789197)
(0.595543 -0.109024 0.831424)
(0.618757 -0.0896852 0.789194)
(0.595617 -0.108529 0.831429)
(0.618834 -0.0891925 0.789192)
(0.595691 -0.108033 0.831433)
(0.618911 -0.0886997 0.78919)
(0.595765 -0.107538 0.831438)
(0.618988 -0.088207 0.789188)
(0.595838 -0.107043 0.831443)
(0.619065 -0.0877142 0.789186)
(0.595912 -0.106547 0.831448)
(0.619141 -0.0872214 0.789184)
(0.595986 -0.106052 0.831453)
(0.619218 -0.0867287 0.789182)
(0.59606 -0.105557 0.831457)
(0.619295 -0.0862359 0.78918)
(0.596134 -0.105061 0.831462)
(0.619372 -0.0857431 0.789178)
(0.596208 -0.104566 0.831466)
(0.619448 -0.0852504 0.789176)
(0.596282 -0.10407 0.831471)
(0.619525 -0.0847576 0.789175)
(0.596356 -0.103575 0.831475)
(0.619602 -0.0842648 0.789173)
(0.59643 -0.10308 0.831479)
(0.619678 -0.083772 0.789171)
(0.596504 -0.102585 0.831484)
(0.619755 -0.0832792 0.78917)
(0.596578 -0.102089 0.831488)
(0.619832 -0.0827864 0.789168)
(0.596652 -0.101594 0.831492)
(0.619908 -0.0822936 0.789167)
(0.596727 -0.101099 0.831496)
(0.619985 -0.0818008 0.789165)
(0.596801 -0.100603 0.8315)
(0.620061 -0.081308 0.789164)
(0.596875 -0.100108 0.831504)
(0.620138 -0.0808152 0.789163)
(0.596949 -0.0996125 0.831508)
(0.620214 -0.0803224 0.789161)
(0.597023 -0.0991177 0.831512)
(0.620291 -0.0798295 0.78916)
(0.597098 -0.0986225 0.831516)
(0.620367 -0.0793367 0.789159)
(0.597172 -0.098127 0.831519)
(0.620443 -0.0788439 0.789158)
(0.597246 -0.0976315 0.831523)
(0.62052 -0.078351 0.789157)
(0.597321 -0.0971361 0.831527)
(0.620596 -0.0778582 0.789156)
(0.597395 -0.0966409 0.83153)
(0.620672 -0.0773654 0.789155)
(0.59747 -0.0961456 0.831534)
(0.620748 -0.0768725 0.789154)
(0.597544 -0.0956504 0.831537)
(0.620825 -0.0763796 0.789153)
(0.597619 -0.0951551 0.831541)
(0.620901 -0.0758868 0.789153)
(0.597693 -0.0946598 0.831544)
(0.620977 -0.0753939 0.789152)
(0.597768 -0.0941645 0.831547)
(0.621053 -0.0749011 0.789151)
(0.597842 -0.0936693 0.83155)
(0.621129 -0.0744082 0.789151)
(0.597917 -0.093174 0.831554)
(0.621205 -0.0739153 0.78915)
(0.597991 -0.0926788 0.831557)
(0.621281 -0.0734225 0.78915)
(0.598066 -0.0921835 0.83156)
(0.621357 -0.0729296 0.789149)
(0.598141 -0.0916883 0.831563)
(0.621433 -0.0724367 0.789149)
(0.598215 -0.091193 0.831566)
(0.62151 -0.0719438 0.789148)
(0.59829 -0.0906978 0.831569)
(0.621585 -0.0714509 0.789148)
(0.598365 -0.0902026 0.831571)
(0.621661 -0.0709579 0.789148)
(0.598439 -0.0897073 0.831574)
(0.621737 -0.070465 0.789148)
(0.598514 -0.0892121 0.831577)
(0.621813 -0.0699721 0.789148)
(0.598589 -0.0887169 0.83158)
(0.621889 -0.0694792 0.789148)
(0.598664 -0.0882217 0.831582)
(0.621965 -0.0689863 0.789148)
(0.598739 -0.0877264 0.831585)
(0.622041 -0.0684934 0.789148)
(0.598813 -0.0872312 0.831587)
(0.622117 -0.0679958 0.789148)
(0.598888 -0.086736 0.83159)
(0.622193 -0.0674981 0.789148)
(0.598963 -0.0862408 0.831592)
(0.62227 -0.0670004 0.789149)
(0.599038 -0.0857456 0.831594)
(0.622346 -0.0665027 0.789149)
(0.599113 -0.0852504 0.831597)
(0.622422 -0.066005 0.789149)
(0.599188 -0.0847552 0.831599)
(0.622499 -0.0655072 0.78915)
(0.599263 -0.08426 0.831601)
(0.622575 -0.0650095 0.78915)
(0.599338 -0.0837648 0.831603)
(0.622651 -0.0645118 0.789151)
(0.599413 -0.0832696 0.831605)
(0.622727 -0.0640141 0.789151)
(0.599489 -0.0827745 0.831607)
(0.622804 -0.0635164 0.789152)
(0.599564 -0.0822793 0.831609)
(0.62288 -0.0630186 0.789153)
(0.599639 -0.0817841 0.831611)
(0.622956 -0.0625209 0.789154)
(0.599714 -0.0812889 0.831613)
(0.623032 -0.0620231 0.789155)
(0.599789 -0.0807938 0.831615)
(0.623108 -0.0615254 0.789156)
(0.599865 -0.0802986 0.831617)
(0.623184 -0.0610276 0.789156)
(0.59994 -0.0798035 0.831618)
(0.62326 -0.0605299 0.789157)
(0.600015 -0.0793083 0.83162)
(0.623336 -0.0600321 0.789159)
(0.60009 -0.0788132 0.831622)
(0.623412 -0.0595344 0.78916)
(0.600166 -0.078318 0.831623)
(0.623488 -0.0590366 0.789161)
(0.600241 -0.0778229 0.831625)
(0.623564 -0.0585388 0.789162)
(0.600317 -0.0773277 0.831626)
(0.62364 -0.0580411 0.789164)
(0.600392 -0.0768326 0.831627)
(0.623715 -0.0575433 0.789165)
(0.600467 -0.0763375 0.831629)
(0.623791 -0.0570455 0.789166)
(0.600543 -0.0758423 0.83163)
(0.623867 -0.0565477 0.789168)
(0.600618 -0.0753472 0.831631)
(0.623943 -0.0560499 0.789169)
(0.600694 -0.0748521 0.831632)
(0.624018 -0.0555521 0.789171)
(0.600769 -0.074357 0.831633)
(0.624094 -0.0550543 0.789172)
(0.600845 -0.0738619 0.831635)
(0.62417 -0.0545565 0.789174)
(0.600921 -0.0733668 0.831635)
(0.624245 -0.0540587 0.789176)
(0.600996 -0.0728717 0.831636)
(0.624321 -0.0535609 0.789178)
(0.601072 -0.0723766 0.831637)
(0.624397 -0.0530631 0.78918)
(0.601148 -0.0718815 0.831638)
(0.624472 -0.0525653 0.789182)
(0.601224 -0.0713864 0.831639)
(0.624548 -0.0520674 0.789183)
(0.601299 -0.0708913 0.83164)
(0.624623 -0.0515696 0.789185)
(0.601375 -0.0703962 0.83164)
(0.624699 -0.0510718 0.789188)
(0.601451 -0.0699011 0.831641)
(0.624774 -0.050574 0.78919)
(0.601527 -0.0694061 0.831642)
(0.62485 -0.0500761 0.789192)
(0.601602 -0.068911 0.831642)
(0.624925 -0.0495783 0.789194)
(0.601678 -0.0684159 0.831643)
(0.625001 -0.0490804 0.789196)
(0.601754 -0.0679209 0.831643)
(0.625076 -0.0485826 0.789199)
(0.60183 -0.0674258 0.831643)
(0.625151 -0.0480847 0.789201)
(0.601906 -0.0669308 0.831644)
(0.625227 -0.0475869 0.789203)
(0.601982 -0.0664357 0.831644)
(0.625302 -0.047089 0.789206)
(0.602058 -0.0659407 0.831644)
(0.625377 -0.0465912 0.789209)
(0.602134 -0.0654456 0.831644)
(0.625453 -0.0460933 0.789211)
(0.60221 -0.0649508 0.831644)
(0.625528 -0.0455954 0.789214)
(0.602286 -0.0644559 0.831644)
(0.625603 -0.0450976 0.789217)
(0.602363 -0.0639611 0.831644)
(0.625678 -0.0445997 0.789219)
(0.602439 -0.0634663 0.831644)
(0.625753 -0.0441018 0.789222)
(0.602515 -0.0629715 0.831644)
(0.625828 -0.0436039 0.789225)
(0.602591 -0.0624767 0.831644)
(0.625903 -0.0431057 0.789228)
(0.602667 -0.0619819 0.831644)
(0.625979 -0.0426074 0.789231)
(0.602744 -0.0614871 0.831644)
(0.626054 -0.0421092 0.789234)
(0.60282 -0.0609923 0.831643)
(0.626129 -0.0416109 0.789237)
(0.602896 -0.0604975 0.831643)
(0.626204 -0.0411127 0.78924)
(0.602972 -0.0600027 0.831643)
(0.626279 -0.0406144 0.789244)
(0.603049 -0.0595079 0.831642)
(0.626354 -0.0401161 0.789247)
(0.603125 -0.0590131 0.831641)
(0.626429 -0.0396178 0.78925)
(0.603201 -0.0585183 0.831641)
(0.626504 -0.0391196 0.789254)
(0.603278 -0.0580236 0.83164)
(0.626579 -0.0386213 0.789257)
(0.603354 -0.0575288 0.83164)
(0.626654 -0.038123 0.789261)
(0.603431 -0.057034 0.831639)
(0.626728 -0.0376247 0.789264)
(0.603507 -0.0565393 0.831638)
(0.626803 -0.0371264 0.789268)
(0.603584 -0.0560445 0.831637)
(0.626878 -0.0366281 0.789271)
(0.60366 -0.0555498 0.831636)
(0.626953 -0.0361298 0.789275)
(0.603737 -0.055055 0.831635)
(0.627028 -0.0356315 0.789279)
(0.603813 -0.0545603 0.831634)
(0.627102 -0.0351332 0.789283)
(0.60389 -0.0540655 0.831633)
(0.627177 -0.0346349 0.789287)
(0.603967 -0.0535708 0.831632)
(0.627252 -0.0341366 0.789291)
(0.604044 -0.0530761 0.831631)
(0.627326 -0.0336383 0.789295)
(0.60412 -0.0525814 0.83163)
(0.604197 -0.0520866 0.831628)
(0.627401 -0.03314 0.789299)
(0.627476 -0.0326417 0.789303)
(0.604274 -0.0515919 0.831627)
(0.62755 -0.0321434 0.789307)
(0.604351 -0.0510972 0.831626)
(0.627625 -0.031645 0.789311)
(0.604427 -0.0506025 0.831624)
(0.627699 -0.0311467 0.789316)
(0.604504 -0.0501078 0.831623)
(0.604581 -0.0496131 0.831621)
(0.627774 -0.0306484 0.78932)
(0.604658 -0.0491184 0.83162)
(0.627849 -0.03015 0.789325)
(0.604735 -0.0486237 0.831618)
(0.627923 -0.0296517 0.789329)
(0.627997 -0.0291534 0.789333)
(0.604812 -0.048129 0.831616)
(0.604889 -0.0476343 0.831615)
(0.628072 -0.028655 0.789338)
(0.628146 -0.0281567 0.789343)
(0.604966 -0.0471396 0.831613)
(0.605043 -0.046645 0.831611)
(0.628221 -0.0276583 0.789347)
(0.60512 -0.0461503 0.831609)
(0.628295 -0.02716 0.789352)
(0.605197 -0.0456556 0.831607)
(0.628369 -0.0266616 0.789357)
(0.605274 -0.045161 0.831605)
(0.628444 -0.0261633 0.789362)
(0.605351 -0.0446663 0.831603)
(0.628518 -0.0256649 0.789367)
(0.605428 -0.0441717 0.831601)
(0.628592 -0.0251665 0.789372)
(0.605506 -0.043677 0.831599)
(0.628666 -0.0246682 0.789377)
(0.605583 -0.0431824 0.831596)
(0.628741 -0.0241698 0.789382)
(0.60566 -0.0426877 0.831594)
(0.628815 -0.0236714 0.789387)
(0.605737 -0.0421931 0.831592)
(0.628889 -0.023173 0.789393)
(0.605815 -0.0416985 0.831589)
(0.628963 -0.0226747 0.789398)
(0.605892 -0.0412038 0.831587)
(0.629037 -0.0221763 0.789403)
(0.605969 -0.0407092 0.831584)
(0.629111 -0.0216779 0.789409)
(0.606047 -0.0402142 0.831582)
(0.629185 -0.0211795 0.789414)
(0.606124 -0.0397192 0.831579)
(0.62926 -0.0206811 0.78942)
(0.606202 -0.0392242 0.831576)
(0.629334 -0.0201827 0.789425)
(0.606279 -0.0387292 0.831573)
(0.629408 -0.0196844 0.789431)
(0.606357 -0.0382342 0.831571)
(0.629482 -0.019186 0.789437)
(0.606434 -0.0377392 0.831568)
(0.629556 -0.0186876 0.789442)
(0.606512 -0.0372442 0.831565)
(0.629631 -0.0181751 0.789449)
(0.606589 -0.0367492 0.831562)
(0.629704 -0.0176623 0.789463)
(0.606667 -0.0362543 0.831559)
(0.629771 -0.0171491 0.789487)
(0.606745 -0.0357593 0.831556)
(0.62983 -0.0166361 0.789528)
(0.606823 -0.0352643 0.831553)
(0.629878 -0.0161241 0.78959)
(0.6069 -0.0347694 0.831549)
(0.629915 -0.0156145 0.789676)
(0.606978 -0.0342744 0.831546)
(0.629938 -0.0151095 0.789788)
(0.607056 -0.0337795 0.831543)
(0.629947 -0.014611 0.789929)
(0.607133 -0.0332845 0.831539)
(0.607211 -0.0327896 0.831536)
(0.629941 -0.0141211 0.790097)
(0.607289 -0.0322946 0.831532)
(0.629921 -0.0136413 0.790292)
(0.607367 -0.0317997 0.831529)
(0.629889 -0.0131804 0.790505)
(0.607445 -0.0313048 0.831525)
(0.629846 -0.0127299 0.790738)
(0.607523 -0.0308098 0.831522)
(0.629794 -0.0122889 0.790987)
(0.607601 -0.0303149 0.831518)
(0.629735 -0.0118557 0.791247)
(0.607679 -0.02982 0.831514)
(0.629671 -0.0114281 0.791516)
(0.607757 -0.0293251 0.83151)
(0.629605 -0.0110034 0.79179)
(0.607835 -0.0288302 0.831506)
(0.607913 -0.0283353 0.831503)
(0.629536 -0.0105817 0.792067)
(0.607991 -0.0278404 0.831498)
(0.629465 -0.010163 0.792348)
(0.629392 -0.00974733 0.792634)
(0.608069 -0.0273455 0.831495)
(0.608147 -0.0268506 0.83149)
(0.629316 -0.00933479 0.792923)
(0.608225 -0.0263557 0.831486)
(0.629238 -0.00892543 0.793216)
(0.608303 -0.0258608 0.831482)
(0.629158 -0.00851929 0.793513)
(0.608382 -0.0253659 0.831478)
(0.629075 -0.00811643 0.793813)
(0.60846 -0.0248711 0.831473)
(0.62899 -0.00771691 0.794118)
(0.608538 -0.0243762 0.831469)
(0.628902 -0.00732079 0.794426)
(0.608616 -0.0238813 0.831464)
(0.628813 -0.00692812 0.794738)
(0.608695 -0.0233865 0.83146)
(0.62872 -0.00653897 0.795053)
(0.608773 -0.0228916 0.831455)
(0.628626 -0.00615339 0.795372)
(0.608851 -0.0223968 0.831451)
(0.628529 -0.00577144 0.795695)
(0.60893 -0.0219019 0.831446)
(0.62843 -0.00539319 0.796022)
(0.609008 -0.0214071 0.831441)
(0.609086 -0.0209123 0.831436)
(0.628328 -0.00501868 0.796352)
(0.609165 -0.0204174 0.831431)
(0.628224 -0.004648 0.796685)
(0.609243 -0.0199226 0.831426)
(0.628126 -0.00431088 0.796997)
(0.609322 -0.0194278 0.831421)
(0.628025 -0.00398271 0.797316)
(0.6094 -0.0189329 0.831416)
(0.627917 -0.00367151 0.79765)
(0.627799 -0.00338411 0.798001)
(0.609479 -0.0184381 0.831411)
(0.627603 -0.00323217 0.798424)
(0.609557 -0.0179433 0.831406)
(0.627408 -0.00308024 0.798848)
(0.609636 -0.0174485 0.8314)
(0.627213 -0.0029283 0.799271)
(0.627018 -0.00277637 0.799694)
(0.609715 -0.0169537 0.831395)
(0.626836 -0.00265705 0.800127)
(0.609793 -0.0164589 0.83139)
(0.626651 -0.00255138 0.800562)
(0.626448 -0.00244408 0.801032)
(0.609872 -0.0159641 0.831384)
(0.626244 -0.00234157 0.801503)
(0.626037 -0.00224367 0.801974)
(0.609949 -0.0154847 0.831378)
(0.62583 -0.0021502 0.802446)
(0.610028 -0.0150057 0.831366)
(0.625621 -0.00206096 0.802917)
(0.625411 -0.00197581 0.803389)
(0.610112 -0.014528 0.831343)
(0.625199 -0.00189459 0.803861)
(0.610203 -0.0140525 0.831306)
(0.624987 -0.00181713 0.804333)
(0.624773 -0.00174331 0.804805)
(0.610302 -0.0135805 0.831249)
(0.624558 -0.00167296 0.805278)
(0.624394 -0.00162145 0.805638)
(0.610411 -0.0131139 0.831171)
(0.624229 -0.00157109 0.805999)
(0.61053 -0.0126544 0.831069)
(0.624017 -0.00150935 0.806459)
(0.61066 -0.0122039 0.830942)
(0.623805 -0.00145105 0.806919)
(0.623592 -0.00139613 0.80738)
(0.6108 -0.0117639 0.830792)
(0.623379 -0.00134454 0.807841)
(0.623165 -0.00129623 0.808301)
(0.610948 -0.0113349 0.83062)
(0.62295 -0.00125113 0.808762)
(0.61109 -0.0109536 0.830446)
(0.622735 -0.00120922 0.809223)
(0.611237 -0.0105804 0.830259)
(0.622519 -0.00117045 0.809684)
(0.611389 -0.0102139 0.830062)
(0.622303 -0.00113482 0.810145)
(0.611542 -0.00985215 0.829859)
(0.622087 -0.0011023 0.810606)
(0.62187 -0.0010729 0.811067)
(0.611722 -0.00943541 0.829619)
(0.621652 -0.00104662 0.811528)
(0.611904 -0.00902181 0.829374)
(0.621434 -0.00102347 0.811989)
(0.612087 -0.00861142 0.829125)
(0.621216 -0.00100349 0.812449)
(0.612272 -0.00820428 0.828872)
(0.620997 -0.000986707 0.81291)
(0.620778 -0.000973161 0.813371)
(0.612458 -0.00780043 0.828614)
(0.612646 -0.00739994 0.828353)
(0.620558 -0.000962897 0.813831)
(0.620338 -0.000955955 0.814291)
(0.612835 -0.00700286 0.828087)
(0.620117 -0.000952372 0.814752)
(0.619896 -0.000952177 0.815211)
(0.613026 -0.00660922 0.827818)
(0.619693 -0.000954518 0.815633)
(0.613218 -0.00621909 0.827544)
(0.619489 -0.000958787 0.816054)
(0.613411 -0.00583252 0.827266)
(0.619276 -0.000965825 0.81649)
(0.619063 -0.000975882 0.816927)
(0.613606 -0.00544956 0.826984)
(0.618849 -0.000989064 0.817363)
(0.613802 -0.00507025 0.826698)
(0.618635 -0.00100549 0.817799)
(0.613999 -0.00469466 0.826409)
(0.61842 -0.0010253 0.818234)
(0.618204 -0.00104862 0.818669)
(0.614198 -0.00432284 0.826115)
(0.617987 -0.00107561 0.819103)
(0.61777 -0.0011064 0.819537)
(0.614398 -0.00395483 0.825817)
(0.617552 -0.00114114 0.81997)
(0.614599 -0.0035907 0.825516)
(0.617333 -0.00117995 0.820402)
(0.614802 -0.0032305 0.82521)
(0.617113 -0.00122291 0.820833)
(0.616867 -0.00127951 0.821312)
(0.614997 -0.00289068 0.824913)
(0.616621 -0.0013568 0.821787)
(0.615194 -0.00256424 0.824603)
(0.61642 -0.00146614 0.822226)
(0.616218 -0.00156616 0.822667)
(0.615395 -0.0022585 0.824275)
(0.616017 -0.00165688 0.82311)
(0.615601 -0.00198043 0.823925)
(0.615811 -0.00173615 0.823554)
(0.615739 -0.108899 0.789323)
(0.615817 -0.108406 0.789319)
(0.594926 -0.125266 0.827514)
(0.594994 -0.125692 0.827236)
(0.615895 -0.107914 0.789315)
(0.59486 -0.124836 0.827788)
(0.615973 -0.107421 0.78931)
(0.594796 -0.124403 0.828057)
(0.61605 -0.106929 0.789306)
(0.616128 -0.106436 0.789302)
(0.594735 -0.123968 0.828323)
(0.616206 -0.105943 0.789298)
(0.594676 -0.12353 0.828585)
(0.616284 -0.105451 0.789294)
(0.59462 -0.123089 0.828842)
(0.616361 -0.104958 0.78929)
(0.594566 -0.122645 0.829096)
(0.616439 -0.104466 0.789286)
(0.594514 -0.122198 0.829345)
(0.616517 -0.103973 0.789282)
(0.594465 -0.12175 0.82959)
(0.616594 -0.10348 0.789278)
(0.594418 -0.121298 0.829831)
(0.616672 -0.102988 0.789275)
(0.594375 -0.120847 0.830065)
(0.616749 -0.102495 0.789271)
(0.616827 -0.102002 0.789267)
(0.594337 -0.120391 0.830289)
(0.616904 -0.10151 0.789264)
(0.60755 -0.132737 0.798781)
(0.607759 -0.132565 0.798384)
(0.607339 -0.13287 0.799192)
(0.607965 -0.132355 0.798004)
(0.608169 -0.132111 0.797643)
(0.607126 -0.132966 0.799612)
(0.608371 -0.131842 0.7973)
(0.606912 -0.133032 0.800037)
(0.608571 -0.131553 0.796972)
(0.606698 -0.133081 0.800465)
(0.608771 -0.131254 0.796653)
(0.606475 -0.133125 0.800915)
(0.608981 -0.130931 0.79632)
(0.606251 -0.133164 0.801366)
(0.609191 -0.130604 0.79599)
(0.606029 -0.133198 0.801817)
(0.609399 -0.130273 0.795664)
(0.605807 -0.133228 0.802269)
(0.609606 -0.129938 0.795341)
(0.605585 -0.133254 0.802721)
(0.609812 -0.129598 0.795022)
(0.605364 -0.133275 0.803174)
(0.610017 -0.129255 0.794707)
(0.605143 -0.133293 0.803627)
(0.61022 -0.128907 0.794395)
(0.604923 -0.133306 0.80408)
(0.604703 -0.133316 0.804534)
(0.610423 -0.128555 0.794087)
(0.604484 -0.133322 0.804988)
(0.610624 -0.128199 0.793783)
(0.604265 -0.133324 0.805442)
(0.610824 -0.12784 0.793482)
(0.604046 -0.133323 0.805897)
(0.611022 -0.127476 0.793186)
(0.603828 -0.133319 0.806352)
(0.61122 -0.127109 0.792893)
(0.60361 -0.133311 0.806807)
(0.611416 -0.126738 0.792604)
(0.603393 -0.133301 0.807262)
(0.61161 -0.126364 0.792319)
(0.603177 -0.133287 0.807717)
(0.611804 -0.125985 0.792038)
(0.602961 -0.133269 0.808172)
(0.602745 -0.133249 0.808628)
(0.611996 -0.125604 0.791761)
(0.602529 -0.133226 0.809083)
(0.612187 -0.125218 0.791487)
(0.602315 -0.133199 0.809538)
(0.612378 -0.124825 0.791216)
(0.6021 -0.13317 0.809994)
(0.613798 -0.120785 0.789561)
(0.599567 -0.132576 0.815456)
(0.59936 -0.132506 0.815911)
(0.613904 -0.120285 0.7895)
(0.599153 -0.132431 0.816365)
(0.598947 -0.132353 0.816818)
(0.614001 -0.119781 0.78946)
(0.598742 -0.132271 0.817271)
(0.614091 -0.119274 0.789437)
(0.598537 -0.132185 0.817724)
(0.598333 -0.132095 0.818176)
(0.614175 -0.118766 0.789424)
(0.59813 -0.132 0.818628)
(0.614256 -0.118257 0.789417)
(0.614334 -0.117765 0.789412)
(0.597526 -0.131688 0.81998)
(0.597327 -0.131574 0.820429)
(0.614413 -0.117272 0.789406)
(0.597129 -0.131455 0.820877)
(0.596932 -0.131329 0.821325)
(0.614491 -0.11678 0.789401)
(0.59674 -0.13119 0.82177)
(0.614569 -0.116287 0.789396)
(0.596555 -0.131029 0.822211)
(0.59638 -0.13084 0.822645)
(0.596218 -0.130617 0.823067)
(0.596071 -0.130355 0.823472)
(0.614803 -0.11481 0.78938)
(0.595939 -0.130056 0.823857)
(0.614881 -0.114317 0.789375)
(0.595626 -0.128983 0.824873)
(0.615116 -0.11284 0.78936)
(0.59554 -0.128591 0.825179)
(0.615194 -0.112347 0.789356)
(0.595455 -0.128186 0.825484)
(0.615272 -0.111854 0.789351)
(0.61535 -0.111362 0.789346)
(0.595372 -0.127779 0.825786)
(0.615428 -0.110869 0.789341)
(0.595292 -0.127368 0.826084)
(0.615505 -0.110377 0.789337)
(0.595214 -0.126954 0.826378)
(0.615583 -0.109884 0.789332)
(0.595138 -0.126536 0.826668)
(0.615661 -0.109392 0.789328)
(0.595065 -0.126116 0.826954)
)

// edges

658
(
(0 1)
(2 3)
(4 2)
(1 5)
(6 4)
(5 7)
(8 6)
(7 9)
(10 8)
(11 10)
(9 12)
(13 11)
(12 14)
(15 13)
(16 15)
(14 17)
(18 16)
(19 20)
(21 22)
(23 24)
(25 26)
(27 28)
(29 30)
(31 27)
(30 32)
(33 31)
(32 34)
(35 33)
(34 36)
(37 35)
(36 38)
(39 37)
(38 40)
(41 39)
(40 42)
(43 41)
(42 44)
(45 43)
(44 46)
(46 47)
(48 45)
(47 49)
(50 48)
(49 51)
(52 50)
(51 53)
(54 52)
(53 55)
(56 54)
(55 57)
(58 56)
(57 59)
(60 58)
(59 61)
(62 60)
(61 63)
(64 62)
(63 65)
(66 64)
(65 67)
(68 66)
(67 69)
(70 68)
(69 71)
(72 70)
(71 73)
(74 72)
(73 75)
(76 74)
(75 77)
(78 76)
(77 79)
(80 78)
(79 81)
(82 80)
(81 83)
(84 82)
(83 85)
(86 84)
(85 87)
(88 86)
(87 89)
(90 88)
(89 91)
(92 90)
(91 93)
(94 92)
(93 95)
(96 94)
(95 97)
(98 96)
(97 99)
(100 98)
(99 101)
(102 100)
(101 103)
(104 102)
(103 105)
(106 104)
(105 107)
(108 106)
(107 109)
(110 108)
(109 111)
(112 110)
(111 113)
(114 112)
(113 115)
(116 114)
(115 117)
(118 116)
(117 119)
(120 118)
(119 121)
(122 120)
(121 123)
(124 122)
(123 125)
(126 124)
(125 127)
(128 126)
(127 129)
(130 128)
(129 131)
(132 130)
(131 133)
(134 132)
(133 135)
(136 134)
(135 137)
(138 136)
(137 139)
(140 138)
(139 141)
(142 140)
(141 143)
(144 142)
(143 145)
(146 144)
(145 147)
(148 146)
(147 149)
(150 148)
(149 151)
(152 150)
(151 153)
(154 152)
(153 155)
(156 154)
(155 157)
(158 156)
(157 159)
(160 158)
(159 161)
(162 160)
(161 163)
(164 162)
(163 165)
(166 164)
(165 167)
(168 166)
(167 169)
(170 168)
(169 171)
(172 170)
(171 173)
(174 172)
(173 175)
(176 174)
(175 177)
(178 176)
(177 179)
(180 178)
(179 181)
(182 180)
(181 183)
(184 182)
(183 185)
(186 184)
(185 187)
(188 186)
(187 189)
(190 188)
(189 191)
(192 190)
(191 193)
(194 192)
(193 195)
(196 194)
(195 197)
(198 196)
(197 199)
(200 198)
(199 201)
(202 200)
(201 203)
(204 202)
(203 205)
(206 204)
(205 207)
(208 206)
(207 209)
(210 208)
(209 211)
(212 210)
(211 213)
(214 212)
(213 215)
(216 214)
(215 217)
(218 216)
(217 219)
(220 218)
(219 221)
(222 220)
(221 223)
(224 222)
(223 225)
(226 224)
(225 227)
(228 226)
(227 229)
(230 228)
(229 231)
(232 230)
(231 233)
(234 232)
(233 235)
(236 234)
(235 237)
(238 236)
(237 239)
(240 238)
(239 241)
(242 240)
(241 243)
(244 242)
(243 245)
(246 244)
(245 247)
(248 246)
(247 249)
(250 248)
(249 251)
(252 250)
(251 253)
(254 252)
(253 255)
(256 254)
(255 257)
(258 256)
(257 259)
(260 258)
(259 261)
(262 260)
(261 263)
(264 262)
(263 265)
(266 264)
(265 267)
(268 266)
(267 269)
(270 268)
(269 271)
(272 270)
(271 273)
(274 272)
(273 275)
(276 274)
(275 277)
(278 276)
(277 279)
(280 278)
(279 281)
(282 280)
(281 283)
(284 282)
(283 285)
(286 284)
(285 287)
(288 286)
(287 289)
(290 288)
(289 291)
(292 290)
(291 293)
(294 292)
(293 295)
(296 294)
(295 297)
(298 296)
(297 299)
(300 298)
(301 300)
(299 302)
(302 303)
(304 301)
(303 305)
(306 304)
(305 307)
(308 306)
(307 309)
(310 308)
(311 310)
(309 312)
(313 311)
(312 314)
(315 313)
(314 316)
(316 317)
(318 315)
(319 318)
(317 320)
(320 321)
(322 319)
(323 322)
(321 324)
(325 323)
(324 326)
(327 325)
(326 328)
(329 327)
(328 330)
(331 329)
(330 332)
(333 331)
(332 334)
(335 333)
(334 336)
(337 335)
(336 338)
(339 337)
(338 340)
(341 339)
(340 342)
(343 341)
(342 344)
(345 343)
(344 346)
(347 345)
(346 348)
(349 347)
(348 350)
(351 349)
(350 352)
(353 351)
(352 354)
(355 353)
(354 356)
(357 355)
(356 358)
(359 357)
(358 360)
(361 359)
(360 362)
(363 361)
(362 364)
(365 363)
(364 366)
(367 365)
(366 368)
(369 367)
(368 370)
(371 369)
(370 372)
(373 371)
(372 374)
(375 373)
(374 376)
(377 375)
(378 377)
(376 379)
(380 378)
(379 381)
(382 380)
(381 383)
(384 382)
(383 385)
(386 384)
(385 387)
(388 386)
(387 389)
(390 388)
(389 391)
(392 390)
(391 393)
(394 392)
(395 394)
(393 396)
(397 395)
(396 398)
(398 399)
(400 397)
(401 400)
(399 402)
(403 401)
(402 404)
(405 403)
(404 406)
(407 405)
(406 408)
(409 407)
(408 410)
(411 409)
(410 412)
(413 411)
(412 414)
(415 413)
(414 416)
(417 415)
(416 418)
(419 417)
(418 420)
(421 419)
(420 422)
(423 421)
(424 423)
(422 425)
(426 424)
(425 427)
(428 426)
(427 429)
(430 428)
(429 431)
(432 430)
(431 433)
(433 434)
(435 432)
(434 436)
(437 435)
(436 438)
(439 437)
(438 440)
(440 441)
(442 439)
(441 443)
(444 442)
(443 445)
(445 446)
(447 444)
(446 448)
(448 449)
(450 447)
(449 451)
(452 450)
(451 453)
(453 454)
(455 452)
(454 456)
(457 455)
(456 458)
(458 459)
(460 457)
(459 461)
(461 462)
(463 460)
(462 464)
(465 463)
(464 466)
(467 465)
(466 468)
(468 469)
(470 467)
(469 471)
(471 472)
(473 470)
(472 474)
(475 473)
(474 476)
(477 475)
(476 478)
(479 477)
(478 480)
(481 479)
(480 482)
(482 483)
(484 481)
(483 485)
(486 484)
(485 487)
(488 486)
(487 489)
(490 488)
(489 491)
(491 492)
(493 490)
(494 493)
(492 495)
(495 496)
(497 494)
(496 498)
(498 499)
(500 497)
(499 501)
(502 500)
(501 503)
(504 502)
(503 505)
(505 506)
(507 504)
(506 508)
(509 507)
(508 510)
(511 509)
(510 512)
(512 513)
(514 511)
(513 515)
(515 516)
(517 514)
(516 518)
(519 517)
(518 520)
(521 519)
(520 522)
(522 523)
(524 521)
(523 525)
(526 524)
(525 527)
(527 528)
(529 526)
(528 530)
(531 529)
(530 532)
(532 531)
(533 534)
(535 536)
(534 537)
(538 535)
(537 539)
(540 538)
(539 541)
(541 542)
(543 540)
(542 544)
(545 543)
(544 546)
(547 545)
(546 548)
(549 547)
(548 550)
(551 549)
(550 552)
(553 551)
(552 554)
(555 553)
(554 556)
(557 555)
(556 558)
(558 559)
(560 557)
(559 561)
(28 560)
(561 29)
(562 563)
(564 562)
(563 565)
(565 566)
(567 564)
(566 568)
(569 567)
(568 570)
(571 569)
(570 572)
(573 571)
(572 574)
(575 573)
(574 576)
(577 575)
(576 578)
(579 577)
(578 580)
(581 579)
(580 582)
(583 581)
(582 584)
(585 583)
(584 586)
(587 585)
(588 587)
(586 589)
(590 588)
(589 591)
(592 590)
(591 593)
(594 592)
(593 595)
(596 594)
(595 597)
(598 596)
(597 599)
(600 598)
(599 601)
(602 600)
(601 603)
(604 602)
(605 604)
(603 606)
(607 605)
(606 608)
(609 607)
(608 610)
(611 609)
(610 0)
(3 611)
(17 612)
(613 18)
(614 613)
(612 615)
(616 614)
(617 616)
(615 618)
(619 617)
(618 620)
(621 619)
(622 621)
(620 623)
(624 622)
(20 624)
(623 625)
(625 626)
(627 19)
(628 627)
(626 629)
(630 628)
(631 630)
(629 632)
(633 631)
(632 634)
(635 633)
(634 21)
(636 635)
(637 636)
(638 637)
(22 639)
(640 638)
(639 641)
(24 640)
(641 25)
(642 23)
(26 643)
(644 642)
(643 645)
(646 644)
(645 647)
(647 648)
(649 646)
(648 650)
(651 649)
(650 652)
(653 651)
(652 654)
(655 653)
(654 656)
(657 655)
(656 533)
(536 657)
)

// concaveStart mixedStart nonFeatureStart
0 0 0
// internalStart flatStart openStart multipleStart
0 0 0 658
// normals

658
(
(0.894514 -0.141848 0.423938)
(0.890463 -0.152924 0.42859)
(0.889722 -0.156147 0.428967)
(0.895174 -0.141964 0.422504)
(0.88988 -0.156133 0.428643)
(0.895187 -0.141949 0.422482)
(0.889784 -0.155633 0.429024)
(0.89518 -0.142035 0.422468)
(0.88977 -0.152036 0.430341)
(0.887783 -0.163993 0.430056)
(0.894414 -0.139074 0.425066)
(0.888331 -0.163004 0.429299)
(0.893305 -0.140818 0.426822)
(0.887877 -0.16304 0.430224)
(0.887966 -0.163538 0.42985)
(0.894054 -0.138222 0.426101)
(0.886127 -0.170489 0.430944)
(0.878626 -0.192634 0.436931)
(0.897148 -0.136904 0.419979)
(0.8824 -0.160321 0.442343)
(0.899489 -0.13989 0.413946)
(0.858849 -0.162067 0.485915)
(0.904242 -0.13904 0.40375)
(0.862889 -0.15542 0.480902)
(0.904192 -0.13983 0.403589)
(0.843363 -0.163458 0.51188)
(0.90381 -0.138788 0.404802)
(0.853027 -0.15188 0.499277)
(0.903786 -0.140547 0.404248)
(0.854454 -0.146855 0.498339)
(0.90383 -0.137986 0.405033)
(0.856842 -0.143679 0.495155)
(0.904192 -0.13888 0.403917)
(0.854721 -0.140736 0.499646)
(0.905834 -0.141029 0.39947)
(0.85684 -0.136194 0.497269)
(0.903179 -0.138581 0.40628)
(0.856326 -0.133478 0.498888)
(0.904732 -0.138974 0.402673)
(0.904732 -0.138974 0.402673)
(0.855997 -0.134317 0.499227)
(0.902548 -0.140414 0.407052)
(0.858143 -0.132288 0.496075)
(0.903911 -0.138833 0.404561)
(0.856567 -0.133145 0.498563)
(0.903943 -0.138731 0.404526)
(0.854329 -0.131764 0.502752)
(0.904084 -0.139648 0.403894)
(0.855934 -0.133061 0.499672)
(0.903603 -0.138782 0.405266)
(0.855231 -0.132188 0.501105)
(0.90355 -0.138724 0.405404)
(0.855364 -0.132617 0.500765)
(0.904696 -0.139798 0.402469)
(0.855454 -0.132274 0.500701)
(0.903678 -0.138795 0.405094)
(0.855161 -0.13259 0.501119)
(0.899818 -0.140655 0.41297)
(0.854643 -0.132891 0.501922)
(0.905482 -0.137236 0.401582)
(0.854965 -0.132771 0.501405)
(0.90328 -0.139514 0.405736)
(0.857701 -0.132292 0.496839)
(0.903271 -0.139535 0.405748)
(0.857953 -0.13333 0.496124)
(0.903206 -0.138665 0.406191)
(0.857986 -0.133229 0.496095)
(0.903676 -0.139629 0.404812)
(0.859003 -0.13219 0.49461)
(0.903599 -0.139538 0.405017)
(0.859078 -0.133372 0.494163)
(0.902029 -0.139247 0.408601)
(0.856591 -0.131399 0.498985)
(0.902033 -0.13928 0.408579)
(0.857903 -0.13295 0.496314)
(0.900922 -0.137239 0.411709)
(0.858046 -0.13334 0.495962)
(0.902959 -0.13951 0.406451)
(0.858238 -0.132252 0.49592)
(0.901503 -0.139193 0.409777)
(0.857617 -0.133016 0.496789)
(0.901476 -0.139236 0.409822)
(0.858713 -0.132314 0.49508)
(0.901671 -0.137391 0.410015)
(0.859272 -0.133233 0.493864)
(0.897995 -0.139471 0.417316)
(0.85818 -0.132242 0.496024)
(0.899444 -0.1389 0.414377)
(0.858256 -0.132355 0.495862)
(0.901937 -0.137407 0.409426)
(0.858417 -0.133288 0.495333)
(0.899597 -0.139777 0.413747)