/*--------------------------------*- C++ -*----------------------------------*\
  =========                 |
  \\      /  F ield         | OpenFOAM: The Open Source CFD Toolbox
   \\    /   O peration     | Website:  https://openfoam.org
    \\  /    A nd           | Version:  11
     \\/     M anipulation  |
\*---------------------------------------------------------------------------*/
FoamFile
{
    format      ascii;
    class       extendedFeatureEdgeMesh;
    location    "constant/extendedFeatureEdgeMesh";
    object      piso_(solo)_5-Zona_3.extendedFeatureEdgeMesh;
}
// * * * * * * * * * * * * * * * * * * * * * * * * * * * * * * * * * * * * * //

// points

24
(
(-5.43638 -4.95523 0)
(0.331499 -4.95523 0)
(0.331499 -4.95523 2.54598)
(-5.43638 -4.95523 2.54598)
(0.331499 5.07626 0)
(0.331499 5.07626 2.54598)
(-5.43638 5.07626 0)
(-5.43638 5.07626 2.54598)
(-1.37432 -3.33882 4.79839)
(-3.48825 -3.33882 4.79839)
(-1.37432 3.42741 4.79839)
(-3.48825 3.42741 4.79839)
(2.74251 -5.02303 0)
(6.9482 -5.02303 0)
(6.9482 -5.02303 2.00732)
(2.74251 -5.02303 2.00732)
(6.9482 5.82303 0)
(6.9482 5.82303 2.00732)
(2.74251 5.82303 0)
(2.74251 5.82303 2.00732)
(-3.48825 -3.33882 2.54598)
(-1.37432 -3.33882 2.54598)
(-1.37432 3.42741 2.54598)
(-3.48825 3.42741 2.54598)
)

// edges

36
(
(1 2)
(0 1)
(3 0)
(2 3)
(4 5)
(1 4)
(5 2)
(6 7)
(4 6)
(7 5)
(6 0)
(3 7)
(21 8)
(9 20)
(8 9)
(22 10)
(10 8)
(23 11)
(11 10)
(9 11)
(13 14)
(12 13)
(15 12)
(14 15)
(16 17)
(13 16)
(17 14)
(18 19)
(16 18)
(19 17)
(18 12)
(15 19)
(20 21)
(21 22)
(22 23)
(23 20)
)

// concaveStart mixedStart nonFeatureStart
20 20 24
// internalStart flatStart openStart multipleStart
32 32 32 32
// normals

38
(
(0 0 1)
(0 0 -1)
(0 -1 0)
(0 0 -1)
(1 0 0)
(0 0 1)
(0 1 0)
(-1 0 0)
(0 -1 0)
(1 0 0)
(0 0 -1)
(0 -1 0)
(-1 0 0)
(0 0 1)
(1 0 0)
(0 1 -0)
(0 0 -1)
(0 1 0)
(-1 0 0)
(0 0 1)
(1 0 0)
(0 -1 0)
(0 0 1)
(0 1 -0)
(-1 0 0)
(0 0 1)
(0 -1 0)
(1 0 0)
(0 0 -1)
(0 -1 0)
(-1 0 0)
(0 0 1)
(1 0 0)
(0 1 -0)
(0 0 -1)
(0 1 0)
(-1 0 0)
(0 0 1)
)

// normal volume types

38
(
0
0
0
0
0
0
0
0
0
0
0
0
0
0
0
0
0
0
0
0
0
0
0
0
0
0
0
0
0
0
0
0
0
0
0
0
0
0
)

// normalDirections

36
(
2(1 -1)
2(1 -1)
2(1 -1)
2(1 -1)
2(1 -1)
2(1 -1)
2(1 -1)
2(1 -1)
2(1 -1)
2(1 -1)
2(1 -1)
2(1 -1)
2(1 -1)
2(1 -1)
2(1 -1)
2(1 -1)
2(1 -1)
2(1 -1)
2(1 -1)
2(1 -1)
2(1 -1)
2(1 -1)
2(1 -1)
2(1 -1)
2(1 -1)
2(1 -1)
2(1 -1)
2(1 -1)
2(1 -1)
2(1 -1)
2(1 -1)
2(1 -1)
3(1 -1 1)
3(1 -1 1)
3(1 -1 1)
3(1 -1 1)
)

// edgeNormals

36
(
2(8 9)
2(8 10)
2(11 12)
2(11 13)
2(14 15)
2(14 16)
2(9 13)
2(17 18)
2(17 16)
2(15 19)
2(12 10)
2(18 19)
2(2 20)
2(21 7)
2(21 22)
2(4 23)
2(20 22)
2(6 24)
2(23 25)
2(24 25)
2(26 27)
2(26 28)
2(29 30)
2(29 31)
2(32 33)
2(32 34)
2(27 31)
2(35 36)
2(35 34)
2(33 37)
2(30 28)
2(36 37)
3(0 1 2)
3(0 3 4)
3(5 3 6)
3(5 1 7)
)

// featurePointNormals

24
(
3(8 10 12)
3(8 9 10)
3(8 9 13)
3(11 12 13)
3(14 15 16)
3(14 15 13)
3(17 18 16)
3(17 18 19)
3(2 20 22)
3(21 7 22)
3(4 23 22)
3(6 24 25)
3(26 28 30)
3(26 27 28)
3(26 27 31)
3(29 30 31)
3(32 33 34)
3(32 33 31)
3(35 36 34)
3(35 36 37)
4(21 7 0 1)
4(2 20 0 1)
4(4 23 0 3)
4(6 24 5 3)
)

// featurePointEdges

24
(
3(2 10 1)
3(0 5 1)
3(3 6 0)
3(2 11 3)
3(4 8 5)
3(6 9 4)
3(7 10 8)
3(9 11 7)
3(14 16 12)
3(13 19 14)
3(16 18 15)
3(18 19 17)
3(22 30 21)
3(20 25 21)
3(23 26 20)
3(22 31 23)
3(24 28 25)
3(26 29 24)
3(27 30 28)
3(29 31 27)
3(32 35 13)
3(32 33 12)
3(33 34 15)
3(34 35 17)
)

// regionEdges
4(32 33 34 35)


// ************************************************************************* //
