/*--------------------------------*- C++ -*----------------------------------*\
  =========                 |
  \\      /  F ield         | OpenFOAM: The Open Source CFD Toolbox
   \\    /   O peration     | Website:  https://openfoam.org
    \\  /    A nd           | Version:  12
     \\/     M anipulation  |
\*---------------------------------------------------------------------------*/
FoamFile
{
    format      ascii;
    class       extendedFeatureEdgeMesh;
    location    "constant/extendedFeatureEdgeMesh";
    object      Surface_Zona_1_16.extendedFeatureEdgeMesh;
}
// * * * * * * * * * * * * * * * * * * * * * * * * * * * * * * * * * * * * * //

// points
8((17.4949 25 1) (-17.5051 25 1) (-17.5051 8.00432 1) (17.4949 8.00432 1) (-12.5051 8.00432 1) (2.49485 8.00432 1) (-2.50515 8.00432 1) (-7.50515 8.00432 1))
// edges
8((0 1) (1 2) (2 4) (5 3) (3 0) (6 5) (4 7) (7 6))
// concaveStart mixedStart nonFeatureStart
0 0 4
// internalStart flatStart openStart multipleStart
0 0 0 8
// normals
6{(0 0 1)}
// normal volume types

6
(
0
0
0
0
0
0
)

// normalDirections

8
(
1(1)
1(1)
1(1)
1(1)
1(1)
1(1)
1(1)
1(1)
)

// edgeNormals

8
(
1(0)
1(0)
1(1)
1(2)
1(2)
1(3)
1(4)
1(5)
)

// featurePointNormals

4
(
1(0)
1(0)
1(0)
1(2)
)

// featurePointEdges

4
(
2(0 4)
2(0 1)
2(1 2)
2(3 4)
)

// regionEdges
8(0 1 2 3 4 5 6 7)


// ************************************************************************* //
