/*--------------------------------*- C++ -*----------------------------------*\
  =========                 |
  \\      /  F ield         | OpenFOAM: The Open Source CFD Toolbox
   \\    /   O peration     | Website:  https://openfoam.org
    \\  /    A nd           | Version:  11
     \\/     M anipulation  |
\*---------------------------------------------------------------------------*/
FoamFile
{
    format      ascii;
    class       extendedFeatureEdgeMesh;
    location    "constant/extendedFeatureEdgeMesh";
    object      Surface_Zona_9_4_001.extendedFeatureEdgeMesh;
}
// * * * * * * * * * * * * * * * * * * * * * * * * * * * * * * * * * * * * * //

// points

16
(
(-1.076578 -2.99568 11)
(1.066279 -2.99568 11)
(-1.076578 -2.99568 11.66667)
(1.066279 -2.99568 11.66667)
(-1.076578 -2.99568 11.33333)
(-0.719436 -2.99568 11)
(-0.362293 -2.99568 11)
(-0.00515 -2.99568 11)
(0.351993 -2.99568 11)
(0.709136 -2.99568 11)
(1.066279 -2.99568 11.33333)
(-0.719436 -2.99568 11.66667)
(-0.362293 -2.99568 11.66667)
(-0.00515 -2.99568 11.66667)
(0.351993 -2.99568 11.66667)
(0.709136 -2.99568 11.66667)
)

// edges

16
(
(4 0)
(0 5)
(5 6)
(6 7)
(7 8)
(8 9)
(9 1)
(1 10)
(2 4)
(11 2)
(12 11)
(13 12)
(14 13)
(15 14)
(10 3)
(3 15)
)

// concaveStart mixedStart nonFeatureStart
0 0 4
// internalStart flatStart openStart multipleStart
0 0 0 16
// normals
14{(0 -1 0)}
// normal volume types

14
(
0
0
0
0
0
0
0
0
0
0
0
0
0
0
)

// normalDirections

16
(
1(1)
1(1)
1(1)
1(1)
1(1)
1(1)
1(1)
1(1)
1(1)
1(1)
1(1)
1(1)
1(1)
1(1)
1(1)
1(1)
)

// edgeNormals

16
(
1(0)
1(0)
1(1)
1(2)
1(3)
1(4)
1(5)
1(6)
1(7)
1(8)
1(9)
1(10)
1(11)
1(12)
1(13)
1(13)
)

// featurePointNormals

4
(
1(0)
1(5)
1(7)
1(13)
)

// featurePointEdges

4
(
2(0 1)
2(6 7)
2(8 9)
2(14 15)
)

// regionEdges

16
(
0
1
2
3
4
5
6
7
8
9
10
11
12
13
14
15
)



// ************************************************************************* //
