/*--------------------------------*- C++ -*----------------------------------*\
  =========                 |
  \\      /  F ield         | OpenFOAM: The Open Source CFD Toolbox
   \\    /   O peration     | Website:  https://openfoam.org
    \\  /    A nd           | Version:  12
     \\/     M anipulation  |
\*---------------------------------------------------------------------------*/
FoamFile
{
    format      ascii;
    class       extendedFeatureEdgeMesh;
    location    "constant/extendedFeatureEdgeMesh";
    object      Surface_Zona_10_6.extendedFeatureEdgeMesh;
}
// * * * * * * * * * * * * * * * * * * * * * * * * * * * * * * * * * * * * * //

// points
9((-2.50515 8.00432 1) (-17.5051 8.00432 1) (-17.5051 8.00432 13) (-2.50515 8.00432 13) (-2.50515 8.00432 4) (-7.50515 8.00432 1) (-12.5051 8.00432 1) (-2.50515 8.00432 7) (-2.50515 8.00432 10))
// edges
9((4 0) (0 5) (6 1) (1 2) (5 6) (7 4) (2 3) (8 7) (3 8))
// concaveStart mixedStart nonFeatureStart
0 0 4
// internalStart flatStart openStart multipleStart
0 0 0 9
// normals
7{(0 1 0)}
// normal volume types

7
(
0
0
0
0
0
0
0
)

// normalDirections

9
(
1(1)
1(1)
1(1)
1(1)
1(1)
1(1)
1(1)
1(1)
1(1)
)

// edgeNormals

9
(
1(0)
1(0)
1(1)
1(1)
1(2)
1(3)
1(4)
1(5)
1(6)
)

// featurePointNormals

4
(
1(0)
1(1)
1(1)
1(4)
)

// featurePointEdges

4
(
2(0 1)
2(2 3)
2(3 6)
2(6 8)
)

// regionEdges
9(0 1 2 3 4 5 6 7 8)


// ************************************************************************* //
