/*--------------------------------*- C++ -*----------------------------------*\
  =========                 |
  \\      /  F ield         | OpenFOAM: The Open Source CFD Toolbox
   \\    /   O peration     | Website:  https://openfoam.org
    \\  /    A nd           | Version:  11
     \\/     M anipulation  |
\*---------------------------------------------------------------------------*/
FoamFile
{
    format      ascii;
    class       extendedFeatureEdgeMesh;
    location    "constant/extendedFeatureEdgeMesh";
    object      Surface_Zona_2_3_001.extendedFeatureEdgeMesh;
}
// * * * * * * * * * * * * * * * * * * * * * * * * * * * * * * * * * * * * * //

// points

16
(
(1.066279 3.00432 1.8)
(1.066278 3.00432 2.4)
(-1.076578 3.00432 1.8)
(-1.076579 3.00432 2.4)
(0.709136 3.00432 1.8)
(1.066278 3.00432 2.1)
(0.709136 3.00432 2.4)
(0.351993 3.00432 1.8)
(0.351993 3.00432 2.4)
(-0.00515 3.00432 1.8)
(-0.00515 3.00432 2.4)
(-0.362293 3.00432 1.8)
(-0.362293 3.00432 2.4)
(-0.719436 3.00432 1.8)
(-0.719436 3.00432 2.4)
(-1.076579 3.00432 2.1)
)

// edges

16
(
(4 0)
(0 5)
(5 1)
(1 6)
(7 4)
(6 8)
(9 7)
(8 10)
(11 9)
(10 12)
(13 11)
(12 14)
(2 13)
(15 2)
(14 3)
(3 15)
)

// concaveStart mixedStart nonFeatureStart
0 0 4
// internalStart flatStart openStart multipleStart
0 0 0 16
// normals
14{(0 -1 0)}
// normal volume types

14
(
0
0
0
0
0
0
0
0
0
0
0
0
0
0
)

// normalDirections

16
(
1(1)
1(1)
1(1)
1(1)
1(1)
1(1)
1(1)
1(1)
1(1)
1(1)
1(1)
1(1)
1(1)
1(1)
1(1)
1(1)
)

// edgeNormals

16
(
1(0)
1(0)
1(1)
1(2)
1(3)
1(4)
1(5)
1(6)
1(7)
1(8)
1(9)
1(10)
1(11)
1(12)
1(13)
1(13)
)

// featurePointNormals

4
(
1(0)
1(1)
1(11)
1(13)
)

// featurePointEdges

4
(
2(0 1)
2(2 3)
2(12 13)
2(14 15)
)

// regionEdges

16
(
0
1
2
3
4
5
6
7
8
9
10
11
12
13
14
15
)



// ************************************************************************* //
