/*--------------------------------*- C++ -*----------------------------------*\
  =========                 |
  \\      /  F ield         | OpenFOAM: The Open Source CFD Toolbox
   \\    /   O peration     | Website:  https://openfoam.org
    \\  /    A nd           | Version:  12
     \\/     M anipulation  |
\*---------------------------------------------------------------------------*/
FoamFile
{
    format      ascii;
    class       extendedFeatureEdgeMesh;
    location    "constant/extendedFeatureEdgeMesh";
    object      Surface_Zona_3_3.001.extendedFeatureEdgeMesh;
}
// * * * * * * * * * * * * * * * * * * * * * * * * * * * * * * * * * * * * * //

// points
6((0.2221226 3.00432 5.181818) (0.2221226 3.00432 5.454545) (-0.6869682 3.00432 5.181818) (-0.6869683 3.00432 5.454545) (-0.2324228 3.00432 5.181818) (-0.2324228 3.00432 5.454545))
// edges
6((4 0) (0 1) (1 5) (2 4) (5 3) (3 2))
// concaveStart mixedStart nonFeatureStart
0 0 4
// internalStart flatStart openStart multipleStart
0 0 0 6
// normals
4{(0 -1 0)}
// normal volume types

4
(
0
0
0
0
)

// normalDirections

6
(
1(1)
1(1)
1(1)
1(1)
1(1)
1(1)
)

// edgeNormals

6
(
1(0)
1(0)
1(1)
1(2)
1(3)
1(3)
)

// featurePointNormals

4
(
1(0)
1(0)
1(2)
1(3)
)

// featurePointEdges

4
(
2(0 1)
2(1 2)
2(3 5)
2(4 5)
)

// regionEdges
6(0 1 2 3 4 5)


// ************************************************************************* //
