/*--------------------------------*- C++ -*----------------------------------*\
  =========                 |
  \\      /  F ield         | OpenFOAM: The Open Source CFD Toolbox
   \\    /   O peration     | Website:  https://openfoam.org
    \\  /    A nd           | Version:  12
     \\/     M anipulation  |
\*---------------------------------------------------------------------------*/
FoamFile
{
    format      ascii;
    class       extendedFeatureEdgeMesh;
    location    "constant/extendedFeatureEdgeMesh";
    object      Surface_Zona_10_9.extendedFeatureEdgeMesh;
}
// * * * * * * * * * * * * * * * * * * * * * * * * * * * * * * * * * * * * * //

// points
6((-17.5051 3.00432 1) (-17.5051 8.00432 1) (-2.50515 8.00432 1) (-2.50515 3.00432 1) (-12.5051 8.00432 1) (-7.50515 8.00432 1))
// edges
6((0 1) (1 4) (5 2) (2 3) (4 5) (3 0))
// concaveStart mixedStart nonFeatureStart
0 0 4
// internalStart flatStart openStart multipleStart
0 0 0 6
// normals
4{(0 0 -1)}
// normal volume types

4
(
0
0
0
0
)

// normalDirections

6
(
1(1)
1(1)
1(1)
1(1)
1(1)
1(1)
)

// edgeNormals

6
(
1(0)
1(0)
1(1)
1(1)
1(2)
1(3)
)

// featurePointNormals

4
(
1(0)
1(0)
1(1)
1(1)
)

// featurePointEdges

4
(
2(0 5)
2(0 1)
2(2 3)
2(3 5)
)

// regionEdges
6(0 1 2 3 4 5)


// ************************************************************************* //
