/*--------------------------------*- C++ -*----------------------------------*\
  =========                 |
  \\      /  F ield         | OpenFOAM: The Open Source CFD Toolbox
   \\    /   O peration     | Website:  https://openfoam.org
    \\  /    A nd           | Version:  12
     \\/     M anipulation  |
\*---------------------------------------------------------------------------*/
FoamFile
{
    format      ascii;
    class       extendedFeatureEdgeMesh;
    location    "constant/extendedFeatureEdgeMesh";
    object      Surface_Zona_1_14.extendedFeatureEdgeMesh;
}
// * * * * * * * * * * * * * * * * * * * * * * * * * * * * * * * * * * * * * //

// points
8((17.5333 -25 1) (25 -25 1) (17.4949 25 1) (25 25 1) (17.4949 8.00432 1) (17.4949 3.00432 1) (17.5333 -2.99568 1) (17.5333 -7.99568 1))
// edges
8((4 5) (5 6) (7 0) (0 1) (2 4) (6 7) (1 3) (3 2))
// concaveStart mixedStart nonFeatureStart
0 0 4
// internalStart flatStart openStart multipleStart
0 0 0 8
// normals
5{(0 0 1)}
// normal volume types

5
(
0
0
0
0
0
)

// normalDirections

8
(
1(1)
1(1)
1(1)
1(1)
1(1)
1(1)
1(1)
1(1)
)

// edgeNormals

8
(
1(0)
1(0)
1(1)
1(1)
1(2)
1(3)
1(4)
1(4)
)

// featurePointNormals

4
(
1(1)
1(1)
1(2)
1(4)
)

// featurePointEdges

4
(
2(2 3)
2(3 6)
2(4 7)
2(6 7)
)

// regionEdges
8(0 1 2 3 4 5 6 7)


// ************************************************************************* //
