/*--------------------------------*- C++ -*----------------------------------*\
  =========                 |
  \\      /  F ield         | OpenFOAM: The Open Source CFD Toolbox
   \\    /   O peration     | Website:  https://openfoam.org
    \\  /    A nd           | Version:  12
     \\/     M anipulation  |
\*---------------------------------------------------------------------------*/
FoamFile
{
    format      ascii;
    class       extendedFeatureEdgeMesh;
    location    "constant/extendedFeatureEdgeMesh";
    object      window.extendedFeatureEdgeMesh;
}
// * * * * * * * * * * * * * * * * * * * * * * * * * * * * * * * * * * * * * //

// points

14
(
(-0.25 1 1.5)
(-0.25 1 1.75)
(0.375 1 1.5)
(0.375 1 1.75)
(-0.25 1 1.625)
(-0.125 1 1.5)
(-0.125 1 1.75)
(0 1 1.5)
(0 1 1.75)
(0.125 1 1.5)
(0.125 1 1.75)
(0.25 1 1.5)
(0.25 1 1.75)
(0.375 1 1.625)
)

// edges

14
(
(0 4)
(5 0)
(4 1)
(1 6)
(7 5)
(6 8)
(9 7)
(8 10)
(11 9)
(10 12)
(13 2)
(2 11)
(12 3)
(3 13)
)

// concaveStart mixedStart nonFeatureStart
0 0 4
// internalStart flatStart openStart multipleStart
0 0 0 14
// normals
12{(0 1 0)}
// normal volume types

12
(
0
0
0
0
0
0
0
0
0
0
0
0
)

// normalDirections

14
(
1(1)
1(1)
1(1)
1(1)
1(1)
1(1)
1(1)
1(1)
1(1)
1(1)
1(1)
1(1)
1(1)
1(1)
)

// edgeNormals

14
(
1(0)
1(1)
1(2)
1(2)
1(3)
1(4)
1(5)
1(6)
1(7)
1(8)
1(9)
1(9)
1(10)
1(11)
)

// featurePointNormals

4
(
1(0)
1(2)
1(9)
1(10)
)

// featurePointEdges

4
(
2(0 1)
2(2 3)
2(10 11)
2(12 13)
)

// regionEdges

14
(
0
1
2
3
4
5
6
7
8
9
10
11
12
13
)



// ************************************************************************* //
