/*--------------------------------*- C++ -*----------------------------------*\
  =========                 |
  \\      /  F ield         | OpenFOAM: The Open Source CFD Toolbox
   \\    /   O peration     | Website:  https://openfoam.org
    \\  /    A nd           | Version:  12
     \\/     M anipulation  |
\*---------------------------------------------------------------------------*/
FoamFile
{
    format      ascii;
    class       featureEdgeMesh;
    location    "constant/triSurface";
    object      fachada_2-Zona_18_ar_condicionado.eMesh;
}
// * * * * * * * * * * * * * * * * * * * * * * * * * * * * * * * * * * * * * //


// points:
4((-0.4988709986 -2.995680094 3.100009918) (-0.4988709986 -2.995680094 3.400010109) (-0.4988709986 -2.695679903 3.400010109) (-0.4988709986 -2.695679903 3.100009918))

// edges:
4((0 1) (1 2) (2 3) (3 0))
// * * * * * * * * * * * * * * * * * * * * * * * * * * * * * * * * * * * * * //


// ************************************************************************* //
